                                  MODFLOW-2005     
      U.S. GEOLOGICAL SURVEY MODULAR FINITE-DIFFERENCE GROUND-WATER FLOW MODEL
                            VERSION 1.11.00 8/8/2013

 LIST FILE: freyberg.list
                         UNIT    2

 OPENING freyberg.hyd
 FILE TYPE:HYD   UNIT   36   STATUS:OLD    
 FORMAT:FORMATTED              ACCESS:SEQUENTIAL          

 OPENING freyberg.dis
 FILE TYPE:DIS   UNIT   11   STATUS:OLD    
 FORMAT:FORMATTED              ACCESS:SEQUENTIAL          

 OPENING freyberg.truth.lpf
 FILE TYPE:LPF   UNIT   31   STATUS:OLD    
 FORMAT:FORMATTED              ACCESS:SEQUENTIAL          

 OPENING freyberg.pcg
 FILE TYPE:PCG   UNIT   32   STATUS:OLD    
 FORMAT:FORMATTED              ACCESS:SEQUENTIAL          

 OPENING freyberg.bas
 FILE TYPE:BAS6   UNIT   13   STATUS:OLD    
 FORMAT:FORMATTED              ACCESS:SEQUENTIAL          

 OPENING freyberg.truth.rch
 FILE TYPE:RCH   UNIT   19   STATUS:OLD    
 FORMAT:FORMATTED              ACCESS:SEQUENTIAL          

 OPENING freyberg.truth.wel
 FILE TYPE:WEL   UNIT   20   STATUS:OLD    
 FORMAT:FORMATTED              ACCESS:SEQUENTIAL          

 OPENING freyberg.truth.riv
 FILE TYPE:RIV   UNIT   18   STATUS:OLD    
 FORMAT:FORMATTED              ACCESS:SEQUENTIAL          

 OPENING freyberg.oc
 FILE TYPE:OC   UNIT   14   STATUS:OLD    
 FORMAT:FORMATTED              ACCESS:SEQUENTIAL          

 OPENING freyberg.hds
 FILE TYPE:DATA(BINARY)   UNIT   51   STATUS:REPLACE
 FORMAT:UNFORMATTED            ACCESS:STREAM              

 OPENING freyberg.ddn
 FILE TYPE:DATA(BINARY)   UNIT   52   STATUS:REPLACE
 FORMAT:UNFORMATTED            ACCESS:STREAM              

 OPENING freyberg.cbc
 FILE TYPE:DATA(BINARY)   UNIT   53   STATUS:REPLACE
 FORMAT:UNFORMATTED            ACCESS:STREAM              

 OPENING freyberg.hyd.bin
 FILE TYPE:DATA(BINARY)   UNIT  536   STATUS:REPLACE
 FORMAT:UNFORMATTED            ACCESS:STREAM              

 BAS -- BASIC PACKAGE, VERSION 7, 5/2/2005 INPUT READ FROM UNIT   13

 MODFLOW was compiled using mixed precision
 Precision of REAL variables:           6
 Precision of DOUBLE PRECISION variables:          15

 DISCRETIZATION INPUT DATA READ FROM UNIT   11
 # Discretization file for MODFLOW, generated by Flopy.
    1 LAYERS        40 ROWS        20 COLUMNS
    3 STRESS PERIOD(S) IN SIMULATION
 MODEL TIME UNIT IS DAYS
 MODEL LENGTH UNIT IS METERS
  Confining bed flag for each layer:
   0



                               DELR
 READING ON UNIT   11 WITH FORMAT: (20G15.6)           



                               DELC
 READING ON UNIT   11 WITH FORMAT: (40G15.6)           

 TOP ELEVATION OF LAYER 1 =   35.0000    

 OPENING FILE ON UNIT   99:
 botm.ref                                                                                                                                                                                                



             MODEL LAYER BOTTOM EL. FOR LAYER   1
 READING ON UNIT   99 WITH FORMAT: (10E12.4)           


 STRESS PERIOD     LENGTH       TIME STEPS     MULTIPLIER FOR DELT    SS FLAG
 ----------------------------------------------------------------------------
        1         1.000000          1                    1.000         SS
        2         1825.000          1                    1.000         TR
        3         1.000000          1                    1.000         SS

 COMBINED STEADY-STATE AND TRANSIENT SIMULATION




 # Basic package file for MODFLOW, generated by Flopy.                           
 THE FREE FORMAT OPTION HAS BEEN SELECTED

 OPENING FILE ON UNIT   99:
 ibound.ref                                                                                                                                                                                              



                     BOUNDARY ARRAY FOR LAYER   1
 READING ON UNIT   99 WITH FORMAT: (25I3)              

 AQUIFER HEAD WILL BE SET TO  -999.99     AT ALL NO-FLOW NODES (IBOUND=0).

 OPENING FILE ON UNIT   99:
 strt.ref                                                                                                                                                                                                



                       INITIAL HEAD FOR LAYER   1
 READING ON UNIT   99 WITH FORMAT: (10E12.4)           
 # Output control package file for MODFLOW, generated by Flopy.

 OUTPUT CONTROL IS SPECIFIED ONLY AT TIME STEPS FOR WHICH OUTPUT IS DESIRED
 COMPACT CELL-BY-CELL BUDGET FILES WILL BE WRITTEN
 AUXILIARY DATA WILL BE SAVED IN CELL-BY-CELL BUDGET FILES
 HEAD PRINT FORMAT CODE IS   0    DRAWDOWN PRINT FORMAT CODE IS   0
 HEADS WILL BE SAVED ON UNIT   51    DRAWDOWNS WILL BE SAVED ON UNIT   52

 LPF -- LAYER-PROPERTY FLOW PACKAGE, VERSION 7, 5/2/2005
         INPUT READ FROM UNIT   31
 # MODFLOW2000 Layer Property Flow (LPF) Package
 CELL-BY-CELL FLOWS WILL BE SAVED ON UNIT   53
 HEAD AT CELLS THAT CONVERT TO DRY= -1.00000E+30
 No named parameters

   LAYER FLAGS:
 LAYER       LAYTYP        LAYAVG         CHANI        LAYVKA        LAYWET
 ---------------------------------------------------------------------------
    1             1             0     1.000E+00             0             0

   INTERPRETATION OF LAYER FLAGS:
                        INTERBLOCK     HORIZONTAL    DATA IN
         LAYER TYPE   TRANSMISSIVITY   ANISOTROPY   ARRAY VKA   WETTABILITY
 LAYER      (LAYTYP)      (LAYAVG)       (CHANI)      (LAYVKA)      (LAYWET)
 ---------------------------------------------------------------------------
    1   CONVERTIBLE      HARMONIC     1.000E+00    VERTICAL K  NON-WETTABLE

 WETTING CAPABILITY IS NOT ACTIVE IN ANY LAYER

 OPENING FILE ON UNIT   99:
 hk.truth.ref                                                                                                                                                                                            



              HYD. COND. ALONG ROWS FOR LAYER   1
 READING ON UNIT   99 WITH FORMAT: (FREE)              

      VERTICAL HYD. COND. =   1.00000     FOR LAYER   1

         SPECIFIC STORAGE =  1.000000E-04 FOR LAYER   1

           SPECIFIC YIELD =  0.250000     FOR LAYER   1

 WEL -- WELL PACKAGE, VERSION 7, 5/2/2005 INPUT READ FROM UNIT   20
 # Well file for MODFLOW, generated by Flopy.
 No named parameters
 MAXIMUM OF      6 ACTIVE WELLS AT ONE TIME


     0 Well parameters

 RIV -- RIVER PACKAGE, VERSION 7, 5/2/2005 INPUT READ FROM UNIT   18
 # RIV for MODFLOW, generated by Flopy.
 No named parameters
 MAXIMUM OF     40 ACTIVE RIVER REACHES AT ONE TIME


     0 River parameters

 RCH -- RECHARGE PACKAGE, VERSION 7, 5/2/2005 INPUT READ FROM UNIT   19
 # RCH for MODFLOW, generated by Flopy.
 No named parameters
 OPTION 3 -- RECHARGE TO HIGHEST ACTIVE NODE IN EACH VERTICAL COLUMN


     0 Recharge parameters

 PCG -- CONJUGATE-GRADIENT SOLUTION PACKAGE, VERSION 7, 5/2/2005
 MAXIMUM OF    100 CALLS OF SOLUTION ROUTINE
 MAXIMUM OF     25 INTERNAL ITERATIONS PER CALL TO SOLUTION ROUTINE
 MATRIX PRECONDITIONING TYPE :    1
 IHCOFADD option -- When an active cell is surrounded by dry cells, convert
 the cell to dry only if storage and head-dependent boundary flow are 0.



                                    SOLUTION BY THE CONJUGATE-GRADIENT METHOD
                                   -------------------------------------------
                    MAXIMUM NUMBER OF CALLS TO PCG ROUTINE =      100
                        MAXIMUM ITERATIONS PER CALL TO PCG =       25
                               MATRIX PRECONDITIONING TYPE =        1
        RELAXATION FACTOR (ONLY USED WITH PRECOND. TYPE 1) =    0.10000E+01
 PARAMETER OF POLYNOMIAL PRECOND. = 2 (2) OR IS CALCULATED :        2
                         HEAD CHANGE CRITERION FOR CLOSURE =    0.10000E-04
                     RESIDUAL CHANGE CRITERION FOR CLOSURE =    0.10000E+00
            PCG HEAD AND RESIDUAL CHANGE PRINTOUT INTERVAL =        5
     PRINTING FROM SOLVER IS LIMITED(1) OR SUPPRESSED (>1) =        0
                            STEADY-STATE DAMPING PARAMETER =    0.70000E+00
                               TRANSIENT DAMPING PARAMETER =    0.70000E+00

 HYD -- HYDROGRAPH DATA FOR BAS PACKAGE, VERSION 7, 07/14/2006
         INPUT READ FROM UNIT 36
 HYDROGRAPH VALUES WILL BE SAVED ON UNIT: 536
 HYDROGRAPH VALUES AT DRY CELLS WILL BE:  -1.00000E+07

 ARR INTYP  KLAY     XL            YL         HYDLBL
 ----------------------------------------------------------------
 HD   I      1   4.12500E+03   9.12500E+03  HDI001cr03c16       
 HD   I      1   2.62500E+03   9.12500E+03  HDI001cr03c10       
 HD   I      1   2.37500E+03   8.87500E+03  HDI001cr04c9        
 HD   I      1   6.25000E+02   7.37500E+03  HDI001cr10c2        
 HD   I      1   2.87500E+03   6.37500E+03  HDI001cr14c11       
 HD   I      1   4.37500E+03   5.87500E+03  HDI001cr16c17       
 HD   I      1   2.87500E+03   4.37500E+03  HDI001cr22c11       
 HD   I      1   4.12500E+03   4.12500E+03  HDI001cr23c16       
 HD   I      1   1.37500E+03   3.62500E+03  HDI001cr25c5        
 HD   I      1   1.87500E+03   3.12500E+03  HDI001cr27c7        
 HD   I      1   4.12500E+03   2.37500E+03  HDI001cr30c16       
 HD   I      1   2.12500E+03   1.37500E+03  HDI001cr34c8        
 HD   I      1   2.87500E+03   1.12500E+03  HDI001cr35c11       
 HD   I      1   4.12500E+03   9.12500E+03  HDI001fr03c16       
 HD   I      1   2.62500E+03   9.12500E+03  HDI001fr03c10       
 HD   I      1   2.37500E+03   8.87500E+03  HDI001fr04c9        
 HD   I      1   6.25000E+02   7.37500E+03  HDI001fr10c2        
 HD   I      1   2.87500E+03   6.37500E+03  HDI001fr14c11       
 HD   I      1   4.37500E+03   5.87500E+03  HDI001fr16c17       
 HD   I      1   2.87500E+03   4.37500E+03  HDI001fr22c11       
 HD   I      1   4.12500E+03   4.12500E+03  HDI001fr23c16       
 HD   I      1   1.37500E+03   3.62500E+03  HDI001fr25c5        
 HD   I      1   1.87500E+03   3.12500E+03  HDI001fr27c7        
 HD   I      1   4.12500E+03   2.37500E+03  HDI001fr30c16       
 HD   I      1   2.12500E+03   1.37500E+03  HDI001fr34c8        
 HD   I      1   2.87500E+03   1.12500E+03  HDI001fr35c11       
 HD   I      1   6.25000E+02   9.37500E+03  HDI001fr02c02       
 HD   I      1   3.37500E+03   9.62500E+03  HDI001fr01c13       
 HD   I      1   3.87500E+03   7.62500E+03  HDI001fr09c15       
 HD   I      1   2.62500E+03   3.62500E+03  HDI001fr25c10       
 HD   I      1   3.75000E+02   9.62500E+03  HDI001pr01c01       
 HD   I      1   6.25000E+02   9.62500E+03  HDI001pr01c02       
 HD   I      1   8.75000E+02   9.62500E+03  HDI001pr01c03       
 HD   I      1   1.12500E+03   9.62500E+03  HDI001pr01c04       
 HD   I      1   1.37500E+03   9.62500E+03  HDI001pr01c05       
 HD   I      1   1.62500E+03   9.62500E+03  HDI001pr01c06       
 HD   I      1   1.87500E+03   9.62500E+03  HDI001pr01c07       
 HD   I      1   2.12500E+03   9.62500E+03  HDI001pr01c08       
 HD   I      1   2.37500E+03   9.62500E+03  HDI001pr01c09       
 HD   I      1   2.62500E+03   9.62500E+03  HDI001pr01c10       
 HD   I      1   2.87500E+03   9.62500E+03  HDI001pr01c11       
 HD   I      1   3.12500E+03   9.62500E+03  HDI001pr01c12       
 HD   I      1   3.37500E+03   9.62500E+03  HDI001pr01c13       
 HD   I      1   3.62500E+03   9.62500E+03  HDI001pr01c14       
 HD   I      1   3.87500E+03   9.62500E+03  HDI001pr01c15       
 HD   I      1   4.12500E+03   9.62500E+03  HDI001pr01c16       
 HD   I      1   4.37500E+03   9.62500E+03  HDI001pr01c17       
 HD   I      1   4.62500E+03   9.62500E+03  HDI001pr01c18       
 HD   I      1   3.75000E+02   9.37500E+03  HDI001pr02c01       
 HD   I      1   6.25000E+02   9.37500E+03  HDI001pr02c02       
 HD   I      1   8.75000E+02   9.37500E+03  HDI001pr02c03       
 HD   I      1   1.12500E+03   9.37500E+03  HDI001pr02c04       
 HD   I      1   1.37500E+03   9.37500E+03  HDI001pr02c05       
 HD   I      1   1.62500E+03   9.37500E+03  HDI001pr02c06       
 HD   I      1   1.87500E+03   9.37500E+03  HDI001pr02c07       
 HD   I      1   2.12500E+03   9.37500E+03  HDI001pr02c08       
 HD   I      1   2.37500E+03   9.37500E+03  HDI001pr02c09       
 HD   I      1   2.62500E+03   9.37500E+03  HDI001pr02c10       
 HD   I      1   2.87500E+03   9.37500E+03  HDI001pr02c11       
 HD   I      1   3.12500E+03   9.37500E+03  HDI001pr02c12       
 HD   I      1   3.37500E+03   9.37500E+03  HDI001pr02c13       
 HD   I      1   3.62500E+03   9.37500E+03  HDI001pr02c14       
 HD   I      1   3.87500E+03   9.37500E+03  HDI001pr02c15       
 HD   I      1   4.12500E+03   9.37500E+03  HDI001pr02c16       
 HD   I      1   4.37500E+03   9.37500E+03  HDI001pr02c17       
 HD   I      1   4.62500E+03   9.37500E+03  HDI001pr02c18       
 HD   I      1   3.75000E+02   9.12500E+03  HDI001pr03c01       
 HD   I      1   6.25000E+02   9.12500E+03  HDI001pr03c02       
 HD   I      1   8.75000E+02   9.12500E+03  HDI001pr03c03       
 HD   I      1   1.12500E+03   9.12500E+03  HDI001pr03c04       
 HD   I      1   1.37500E+03   9.12500E+03  HDI001pr03c05       
 HD   I      1   1.62500E+03   9.12500E+03  HDI001pr03c06       
 HD   I      1   1.87500E+03   9.12500E+03  HDI001pr03c07       
 HD   I      1   2.12500E+03   9.12500E+03  HDI001pr03c08       
 HD   I      1   2.37500E+03   9.12500E+03  HDI001pr03c09       
 HD   I      1   2.62500E+03   9.12500E+03  HDI001pr03c10       
 HD   I      1   2.87500E+03   9.12500E+03  HDI001pr03c11       
 HD   I      1   3.12500E+03   9.12500E+03  HDI001pr03c12       
 HD   I      1   3.37500E+03   9.12500E+03  HDI001pr03c13       
 HD   I      1   3.62500E+03   9.12500E+03  HDI001pr03c14       
 HD   I      1   3.87500E+03   9.12500E+03  HDI001pr03c15       
 HD   I      1   4.12500E+03   9.12500E+03  HDI001pr03c16       
 HD   I      1   4.37500E+03   9.12500E+03  HDI001pr03c17       
 HD   I      1   4.62500E+03   9.12500E+03  HDI001pr03c18       
 HD   I      1   3.75000E+02   8.87500E+03  HDI001pr04c01       
 HD   I      1   6.25000E+02   8.87500E+03  HDI001pr04c02       
 HD   I      1   8.75000E+02   8.87500E+03  HDI001pr04c03       
 HD   I      1   1.12500E+03   8.87500E+03  HDI001pr04c04       
 HD   I      1   1.37500E+03   8.87500E+03  HDI001pr04c05       
 HD   I      1   1.62500E+03   8.87500E+03  HDI001pr04c06       
 HD   I      1   1.87500E+03   8.87500E+03  HDI001pr04c07       
 HD   I      1   2.12500E+03   8.87500E+03  HDI001pr04c08       
 HD   I      1   2.37500E+03   8.87500E+03  HDI001pr04c09       
 HD   I      1   2.62500E+03   8.87500E+03  HDI001pr04c10       
 HD   I      1   2.87500E+03   8.87500E+03  HDI001pr04c11       
 HD   I      1   3.12500E+03   8.87500E+03  HDI001pr04c12       
 HD   I      1   3.37500E+03   8.87500E+03  HDI001pr04c13       
 HD   I      1   3.62500E+03   8.87500E+03  HDI001pr04c14       
 HD   I      1   3.87500E+03   8.87500E+03  HDI001pr04c15       
 HD   I      1   4.12500E+03   8.87500E+03  HDI001pr04c16       
 HD   I      1   4.37500E+03   8.87500E+03  HDI001pr04c17       
 HD   I      1   4.62500E+03   8.87500E+03  HDI001pr04c18       
 HD   I      1   3.75000E+02   8.62500E+03  HDI001pr05c01       
 HD   I      1   6.25000E+02   8.62500E+03  HDI001pr05c02       
 HD   I      1   8.75000E+02   8.62500E+03  HDI001pr05c03       
 HD   I      1   1.12500E+03   8.62500E+03  HDI001pr05c04       
 HD   I      1   1.37500E+03   8.62500E+03  HDI001pr05c05       
 HD   I      1   1.62500E+03   8.62500E+03  HDI001pr05c06       
 HD   I      1   1.87500E+03   8.62500E+03  HDI001pr05c07       
 HD   I      1   2.12500E+03   8.62500E+03  HDI001pr05c08       
 HD   I      1   2.37500E+03   8.62500E+03  HDI001pr05c09       
 HD   I      1   2.62500E+03   8.62500E+03  HDI001pr05c10       
 HD   I      1   2.87500E+03   8.62500E+03  HDI001pr05c11       
 HD   I      1   3.12500E+03   8.62500E+03  HDI001pr05c12       
 HD   I      1   3.37500E+03   8.62500E+03  HDI001pr05c13       
 HD   I      1   3.62500E+03   8.62500E+03  HDI001pr05c14       
 HD   I      1   3.87500E+03   8.62500E+03  HDI001pr05c15       
 HD   I      1   4.12500E+03   8.62500E+03  HDI001pr05c16       
 HD   I      1   4.37500E+03   8.62500E+03  HDI001pr05c17       
 HD   I      1   4.62500E+03   8.62500E+03  HDI001pr05c18       
 HD   I      1   3.75000E+02   8.37500E+03  HDI001pr06c01       
 HD   I      1   6.25000E+02   8.37500E+03  HDI001pr06c02       
 HD   I      1   8.75000E+02   8.37500E+03  HDI001pr06c03       
 HD   I      1   1.12500E+03   8.37500E+03  HDI001pr06c04       
 HD   I      1   1.37500E+03   8.37500E+03  HDI001pr06c05       
 HD   I      1   1.62500E+03   8.37500E+03  HDI001pr06c06       
 HD   I      1   1.87500E+03   8.37500E+03  HDI001pr06c07       
 HD   I      1   2.12500E+03   8.37500E+03  HDI001pr06c08       
 HD   I      1   2.37500E+03   8.37500E+03  HDI001pr06c09       
 HD   I      1   2.62500E+03   8.37500E+03  HDI001pr06c10       
 HD   I      1   2.87500E+03   8.37500E+03  HDI001pr06c11       
 HD   I      1   3.12500E+03   8.37500E+03  HDI001pr06c12       
 HD   I      1   3.37500E+03   8.37500E+03  HDI001pr06c13       
 HD   I      1   3.62500E+03   8.37500E+03  HDI001pr06c14       
 HD   I      1   3.87500E+03   8.37500E+03  HDI001pr06c15       
 HD   I      1   4.12500E+03   8.37500E+03  HDI001pr06c16       
 HD   I      1   4.37500E+03   8.37500E+03  HDI001pr06c17       
 HD   I      1   4.62500E+03   8.37500E+03  HDI001pr06c18       
 HD   I      1   3.75000E+02   8.12500E+03  HDI001pr07c01       
 HD   I      1   6.25000E+02   8.12500E+03  HDI001pr07c02       
 HD   I      1   8.75000E+02   8.12500E+03  HDI001pr07c03       
 HD   I      1   1.12500E+03   8.12500E+03  HDI001pr07c04       
 HD   I      1   1.37500E+03   8.12500E+03  HDI001pr07c05       
 HD   I      1   1.62500E+03   8.12500E+03  HDI001pr07c06       
 HD   I      1   1.87500E+03   8.12500E+03  HDI001pr07c07       
 HD   I      1   2.12500E+03   8.12500E+03  HDI001pr07c08       
 HD   I      1   2.37500E+03   8.12500E+03  HDI001pr07c09       
 HD   I      1   2.62500E+03   8.12500E+03  HDI001pr07c10       
 HD   I      1   2.87500E+03   8.12500E+03  HDI001pr07c11       
 HD   I      1   3.12500E+03   8.12500E+03  HDI001pr07c12       
 HD   I      1   3.37500E+03   8.12500E+03  HDI001pr07c13       
 HD   I      1   3.62500E+03   8.12500E+03  HDI001pr07c14       
 HD   I      1   3.87500E+03   8.12500E+03  HDI001pr07c15       
 HD   I      1   4.12500E+03   8.12500E+03  HDI001pr07c16       
 HD   I      1   4.37500E+03   8.12500E+03  HDI001pr07c17       
 HD   I      1   4.62500E+03   8.12500E+03  HDI001pr07c18       
 HD   I      1   3.75000E+02   7.87500E+03  HDI001pr08c01       
 HD   I      1   6.25000E+02   7.87500E+03  HDI001pr08c02       
 HD   I      1   8.75000E+02   7.87500E+03  HDI001pr08c03       
 HD   I      1   1.87500E+03   7.87500E+03  HDI001pr08c07       
 HD   I      1   2.12500E+03   7.87500E+03  HDI001pr08c08       
 HD   I      1   2.37500E+03   7.87500E+03  HDI001pr08c09       
 HD   I      1   2.62500E+03   7.87500E+03  HDI001pr08c10       
 HD   I      1   2.87500E+03   7.87500E+03  HDI001pr08c11       
 HD   I      1   3.12500E+03   7.87500E+03  HDI001pr08c12       
 HD   I      1   3.37500E+03   7.87500E+03  HDI001pr08c13       
 HD   I      1   3.62500E+03   7.87500E+03  HDI001pr08c14       
 HD   I      1   3.87500E+03   7.87500E+03  HDI001pr08c15       
 HD   I      1   4.12500E+03   7.87500E+03  HDI001pr08c16       
 HD   I      1   4.37500E+03   7.87500E+03  HDI001pr08c17       
 HD   I      1   4.62500E+03   7.87500E+03  HDI001pr08c18       
 HD   I      1   3.75000E+02   7.62500E+03  HDI001pr09c01       
 HD   I      1   6.25000E+02   7.62500E+03  HDI001pr09c02       
 HD   I      1   8.75000E+02   7.62500E+03  HDI001pr09c03       
 HD   I      1   2.12500E+03   7.62500E+03  HDI001pr09c08       
 HD   I      1   2.37500E+03   7.62500E+03  HDI001pr09c09       
 HD   I      1   2.62500E+03   7.62500E+03  HDI001pr09c10       
 HD   I      1   2.87500E+03   7.62500E+03  HDI001pr09c11       
 HD   I      1   3.12500E+03   7.62500E+03  HDI001pr09c12       
 HD   I      1   3.37500E+03   7.62500E+03  HDI001pr09c13       
 HD   I      1   3.62500E+03   7.62500E+03  HDI001pr09c14       
 HD   I      1   3.87500E+03   7.62500E+03  HDI001pr09c15       
 HD   I      1   4.12500E+03   7.62500E+03  HDI001pr09c16       
 HD   I      1   4.37500E+03   7.62500E+03  HDI001pr09c17       
 HD   I      1   4.62500E+03   7.62500E+03  HDI001pr09c18       
 HD   I      1   3.75000E+02   7.37500E+03  HDI001pr10c01       
 HD   I      1   6.25000E+02   7.37500E+03  HDI001pr10c02       
 HD   I      1   8.75000E+02   7.37500E+03  HDI001pr10c03       
 HD   I      1   2.12500E+03   7.37500E+03  HDI001pr10c08       
 HD   I      1   2.37500E+03   7.37500E+03  HDI001pr10c09       
 HD   I      1   2.62500E+03   7.37500E+03  HDI001pr10c10       
 HD   I      1   2.87500E+03   7.37500E+03  HDI001pr10c11       
 HD   I      1   3.12500E+03   7.37500E+03  HDI001pr10c12       
 HD   I      1   3.37500E+03   7.37500E+03  HDI001pr10c13       
 HD   I      1   3.62500E+03   7.37500E+03  HDI001pr10c14       
 HD   I      1   3.87500E+03   7.37500E+03  HDI001pr10c15       
 HD   I      1   4.12500E+03   7.37500E+03  HDI001pr10c16       
 HD   I      1   4.37500E+03   7.37500E+03  HDI001pr10c17       
 HD   I      1   4.62500E+03   7.37500E+03  HDI001pr10c18       
 HD   I      1   3.75000E+02   7.12500E+03  HDI001pr11c01       
 HD   I      1   6.25000E+02   7.12500E+03  HDI001pr11c02       
 HD   I      1   8.75000E+02   7.12500E+03  HDI001pr11c03       
 HD   I      1   2.12500E+03   7.12500E+03  HDI001pr11c08       
 HD   I      1   2.37500E+03   7.12500E+03  HDI001pr11c09       
 HD   I      1   2.62500E+03   7.12500E+03  HDI001pr11c10       
 HD   I      1   2.87500E+03   7.12500E+03  HDI001pr11c11       
 HD   I      1   3.12500E+03   7.12500E+03  HDI001pr11c12       
 HD   I      1   3.37500E+03   7.12500E+03  HDI001pr11c13       
 HD   I      1   3.62500E+03   7.12500E+03  HDI001pr11c14       
 HD   I      1   3.87500E+03   7.12500E+03  HDI001pr11c15       
 HD   I      1   4.12500E+03   7.12500E+03  HDI001pr11c16       
 HD   I      1   4.37500E+03   7.12500E+03  HDI001pr11c17       
 HD   I      1   4.62500E+03   7.12500E+03  HDI001pr11c18       
 HD   I      1   3.75000E+02   6.87500E+03  HDI001pr12c01       
 HD   I      1   6.25000E+02   6.87500E+03  HDI001pr12c02       
 HD   I      1   8.75000E+02   6.87500E+03  HDI001pr12c03       
 HD   I      1   2.12500E+03   6.87500E+03  HDI001pr12c08       
 HD   I      1   2.37500E+03   6.87500E+03  HDI001pr12c09       
 HD   I      1   2.62500E+03   6.87500E+03  HDI001pr12c10       
 HD   I      1   2.87500E+03   6.87500E+03  HDI001pr12c11       
 HD   I      1   3.12500E+03   6.87500E+03  HDI001pr12c12       
 HD   I      1   3.37500E+03   6.87500E+03  HDI001pr12c13       
 HD   I      1   3.62500E+03   6.87500E+03  HDI001pr12c14       
 HD   I      1   3.87500E+03   6.87500E+03  HDI001pr12c15       
 HD   I      1   4.12500E+03   6.87500E+03  HDI001pr12c16       
 HD   I      1   4.37500E+03   6.87500E+03  HDI001pr12c17       
 HD   I      1   4.62500E+03   6.87500E+03  HDI001pr12c18       
 HD   I      1   3.75000E+02   6.62500E+03  HDI001pr13c01       
 HD   I      1   6.25000E+02   6.62500E+03  HDI001pr13c02       
 HD   I      1   8.75000E+02   6.62500E+03  HDI001pr13c03       
 HD   I      1   2.12500E+03   6.62500E+03  HDI001pr13c08       
 HD   I      1   2.37500E+03   6.62500E+03  HDI001pr13c09       
 HD   I      1   2.62500E+03   6.62500E+03  HDI001pr13c10       
 HD   I      1   2.87500E+03   6.62500E+03  HDI001pr13c11       
 HD   I      1   3.12500E+03   6.62500E+03  HDI001pr13c12       
 HD   I      1   3.37500E+03   6.62500E+03  HDI001pr13c13       
 HD   I      1   3.62500E+03   6.62500E+03  HDI001pr13c14       
 HD   I      1   3.87500E+03   6.62500E+03  HDI001pr13c15       
 HD   I      1   4.12500E+03   6.62500E+03  HDI001pr13c16       
 HD   I      1   4.37500E+03   6.62500E+03  HDI001pr13c17       
 HD   I      1   4.62500E+03   6.62500E+03  HDI001pr13c18       
 HD   I      1   3.75000E+02   6.37500E+03  HDI001pr14c01       
 HD   I      1   6.25000E+02   6.37500E+03  HDI001pr14c02       
 HD   I      1   8.75000E+02   6.37500E+03  HDI001pr14c03       
 HD   I      1   2.12500E+03   6.37500E+03  HDI001pr14c08       
 HD   I      1   2.37500E+03   6.37500E+03  HDI001pr14c09       
 HD   I      1   2.62500E+03   6.37500E+03  HDI001pr14c10       
 HD   I      1   2.87500E+03   6.37500E+03  HDI001pr14c11       
 HD   I      1   3.12500E+03   6.37500E+03  HDI001pr14c12       
 HD   I      1   3.37500E+03   6.37500E+03  HDI001pr14c13       
 HD   I      1   3.62500E+03   6.37500E+03  HDI001pr14c14       
 HD   I      1   3.87500E+03   6.37500E+03  HDI001pr14c15       
 HD   I      1   4.12500E+03   6.37500E+03  HDI001pr14c16       
 HD   I      1   4.37500E+03   6.37500E+03  HDI001pr14c17       
 HD   I      1   4.62500E+03   6.37500E+03  HDI001pr14c18       
 HD   I      1   3.75000E+02   6.12500E+03  HDI001pr15c01       
 HD   I      1   6.25000E+02   6.12500E+03  HDI001pr15c02       
 HD   I      1   8.75000E+02   6.12500E+03  HDI001pr15c03       
 HD   I      1   2.12500E+03   6.12500E+03  HDI001pr15c08       
 HD   I      1   2.37500E+03   6.12500E+03  HDI001pr15c09       
 HD   I      1   2.62500E+03   6.12500E+03  HDI001pr15c10       
 HD   I      1   2.87500E+03   6.12500E+03  HDI001pr15c11       
 HD   I      1   3.12500E+03   6.12500E+03  HDI001pr15c12       
 HD   I      1   3.37500E+03   6.12500E+03  HDI001pr15c13       
 HD   I      1   3.62500E+03   6.12500E+03  HDI001pr15c14       
 HD   I      1   3.87500E+03   6.12500E+03  HDI001pr15c15       
 HD   I      1   4.12500E+03   6.12500E+03  HDI001pr15c16       
 HD   I      1   4.37500E+03   6.12500E+03  HDI001pr15c17       
 HD   I      1   4.62500E+03   6.12500E+03  HDI001pr15c18       
 HD   I      1   3.75000E+02   5.87500E+03  HDI001pr16c01       
 HD   I      1   6.25000E+02   5.87500E+03  HDI001pr16c02       
 HD   I      1   8.75000E+02   5.87500E+03  HDI001pr16c03       
 HD   I      1   2.12500E+03   5.87500E+03  HDI001pr16c08       
 HD   I      1   2.37500E+03   5.87500E+03  HDI001pr16c09       
 HD   I      1   2.62500E+03   5.87500E+03  HDI001pr16c10       
 HD   I      1   2.87500E+03   5.87500E+03  HDI001pr16c11       
 HD   I      1   3.12500E+03   5.87500E+03  HDI001pr16c12       
 HD   I      1   3.37500E+03   5.87500E+03  HDI001pr16c13       
 HD   I      1   3.62500E+03   5.87500E+03  HDI001pr16c14       
 HD   I      1   3.87500E+03   5.87500E+03  HDI001pr16c15       
 HD   I      1   4.12500E+03   5.87500E+03  HDI001pr16c16       
 HD   I      1   4.37500E+03   5.87500E+03  HDI001pr16c17       
 HD   I      1   4.62500E+03   5.87500E+03  HDI001pr16c18       
 HD   I      1   3.75000E+02   5.62500E+03  HDI001pr17c01       
 HD   I      1   6.25000E+02   5.62500E+03  HDI001pr17c02       
 HD   I      1   8.75000E+02   5.62500E+03  HDI001pr17c03       
 HD   I      1   2.12500E+03   5.62500E+03  HDI001pr17c08       
 HD   I      1   2.37500E+03   5.62500E+03  HDI001pr17c09       
 HD   I      1   2.62500E+03   5.62500E+03  HDI001pr17c10       
 HD   I      1   2.87500E+03   5.62500E+03  HDI001pr17c11       
 HD   I      1   3.12500E+03   5.62500E+03  HDI001pr17c12       
 HD   I      1   3.37500E+03   5.62500E+03  HDI001pr17c13       
 HD   I      1   3.62500E+03   5.62500E+03  HDI001pr17c14       
 HD   I      1   3.87500E+03   5.62500E+03  HDI001pr17c15       
 HD   I      1   4.12500E+03   5.62500E+03  HDI001pr17c16       
 HD   I      1   4.37500E+03   5.62500E+03  HDI001pr17c17       
 HD   I      1   4.62500E+03   5.62500E+03  HDI001pr17c18       
 HD   I      1   3.75000E+02   5.37500E+03  HDI001pr18c01       
 HD   I      1   6.25000E+02   5.37500E+03  HDI001pr18c02       
 HD   I      1   8.75000E+02   5.37500E+03  HDI001pr18c03       
 HD   I      1   2.12500E+03   5.37500E+03  HDI001pr18c08       
 HD   I      1   2.37500E+03   5.37500E+03  HDI001pr18c09       
 HD   I      1   2.62500E+03   5.37500E+03  HDI001pr18c10       
 HD   I      1   2.87500E+03   5.37500E+03  HDI001pr18c11       
 HD   I      1   3.12500E+03   5.37500E+03  HDI001pr18c12       
 HD   I      1   3.37500E+03   5.37500E+03  HDI001pr18c13       
 HD   I      1   3.62500E+03   5.37500E+03  HDI001pr18c14       
 HD   I      1   3.87500E+03   5.37500E+03  HDI001pr18c15       
 HD   I      1   4.12500E+03   5.37500E+03  HDI001pr18c16       
 HD   I      1   4.37500E+03   5.37500E+03  HDI001pr18c17       
 HD   I      1   4.62500E+03   5.37500E+03  HDI001pr18c18       
 HD   I      1   3.75000E+02   5.12500E+03  HDI001pr19c01       
 HD   I      1   6.25000E+02   5.12500E+03  HDI001pr19c02       
 HD   I      1   8.75000E+02   5.12500E+03  HDI001pr19c03       
 HD   I      1   2.12500E+03   5.12500E+03  HDI001pr19c08       
 HD   I      1   2.37500E+03   5.12500E+03  HDI001pr19c09       
 HD   I      1   2.62500E+03   5.12500E+03  HDI001pr19c10       
 HD   I      1   2.87500E+03   5.12500E+03  HDI001pr19c11       
 HD   I      1   3.12500E+03   5.12500E+03  HDI001pr19c12       
 HD   I      1   3.37500E+03   5.12500E+03  HDI001pr19c13       
 HD   I      1   3.62500E+03   5.12500E+03  HDI001pr19c14       
 HD   I      1   3.87500E+03   5.12500E+03  HDI001pr19c15       
 HD   I      1   4.12500E+03   5.12500E+03  HDI001pr19c16       
 HD   I      1   4.37500E+03   5.12500E+03  HDI001pr19c17       
 HD   I      1   4.62500E+03   5.12500E+03  HDI001pr19c18       
 HD   I      1   3.75000E+02   4.87500E+03  HDI001pr20c01       
 HD   I      1   6.25000E+02   4.87500E+03  HDI001pr20c02       
 HD   I      1   8.75000E+02   4.87500E+03  HDI001pr20c03       
 HD   I      1   2.12500E+03   4.87500E+03  HDI001pr20c08       
 HD   I      1   2.37500E+03   4.87500E+03  HDI001pr20c09       
 HD   I      1   2.62500E+03   4.87500E+03  HDI001pr20c10       
 HD   I      1   2.87500E+03   4.87500E+03  HDI001pr20c11       
 HD   I      1   3.12500E+03   4.87500E+03  HDI001pr20c12       
 HD   I      1   3.37500E+03   4.87500E+03  HDI001pr20c13       
 HD   I      1   3.62500E+03   4.87500E+03  HDI001pr20c14       
 HD   I      1   3.87500E+03   4.87500E+03  HDI001pr20c15       
 HD   I      1   4.12500E+03   4.87500E+03  HDI001pr20c16       
 HD   I      1   4.37500E+03   4.87500E+03  HDI001pr20c17       
 HD   I      1   4.62500E+03   4.87500E+03  HDI001pr20c18       
 HD   I      1   3.75000E+02   4.62500E+03  HDI001pr21c01       
 HD   I      1   6.25000E+02   4.62500E+03  HDI001pr21c02       
 HD   I      1   8.75000E+02   4.62500E+03  HDI001pr21c03       
 HD   I      1   1.62500E+03   4.62500E+03  HDI001pr21c06       
 HD   I      1   1.87500E+03   4.62500E+03  HDI001pr21c07       
 HD   I      1   2.12500E+03   4.62500E+03  HDI001pr21c08       
 HD   I      1   2.37500E+03   4.62500E+03  HDI001pr21c09       
 HD   I      1   2.62500E+03   4.62500E+03  HDI001pr21c10       
 HD   I      1   2.87500E+03   4.62500E+03  HDI001pr21c11       
 HD   I      1   3.12500E+03   4.62500E+03  HDI001pr21c12       
 HD   I      1   3.37500E+03   4.62500E+03  HDI001pr21c13       
 HD   I      1   3.62500E+03   4.62500E+03  HDI001pr21c14       
 HD   I      1   3.87500E+03   4.62500E+03  HDI001pr21c15       
 HD   I      1   4.12500E+03   4.62500E+03  HDI001pr21c16       
 HD   I      1   4.37500E+03   4.62500E+03  HDI001pr21c17       
 HD   I      1   4.62500E+03   4.62500E+03  HDI001pr21c18       
 HD   I      1   3.75000E+02   4.37500E+03  HDI001pr22c01       
 HD   I      1   6.25000E+02   4.37500E+03  HDI001pr22c02       
 HD   I      1   8.75000E+02   4.37500E+03  HDI001pr22c03       
 HD   I      1   1.12500E+03   4.37500E+03  HDI001pr22c04       
 HD   I      1   1.62500E+03   4.37500E+03  HDI001pr22c06       
 HD   I      1   1.87500E+03   4.37500E+03  HDI001pr22c07       
 HD   I      1   2.12500E+03   4.37500E+03  HDI001pr22c08       
 HD   I      1   2.37500E+03   4.37500E+03  HDI001pr22c09       
 HD   I      1   2.62500E+03   4.37500E+03  HDI001pr22c10       
 HD   I      1   2.87500E+03   4.37500E+03  HDI001pr22c11       
 HD   I      1   3.12500E+03   4.37500E+03  HDI001pr22c12       
 HD   I      1   3.37500E+03   4.37500E+03  HDI001pr22c13       
 HD   I      1   3.62500E+03   4.37500E+03  HDI001pr22c14       
 HD   I      1   3.87500E+03   4.37500E+03  HDI001pr22c15       
 HD   I      1   4.12500E+03   4.37500E+03  HDI001pr22c16       
 HD   I      1   4.37500E+03   4.37500E+03  HDI001pr22c17       
 HD   I      1   4.62500E+03   4.37500E+03  HDI001pr22c18       
 HD   I      1   3.75000E+02   4.12500E+03  HDI001pr23c01       
 HD   I      1   6.25000E+02   4.12500E+03  HDI001pr23c02       
 HD   I      1   8.75000E+02   4.12500E+03  HDI001pr23c03       
 HD   I      1   1.12500E+03   4.12500E+03  HDI001pr23c04       
 HD   I      1   1.37500E+03   4.12500E+03  HDI001pr23c05       
 HD   I      1   1.62500E+03   4.12500E+03  HDI001pr23c06       
 HD   I      1   1.87500E+03   4.12500E+03  HDI001pr23c07       
 HD   I      1   2.12500E+03   4.12500E+03  HDI001pr23c08       
 HD   I      1   2.37500E+03   4.12500E+03  HDI001pr23c09       
 HD   I      1   2.62500E+03   4.12500E+03  HDI001pr23c10       
 HD   I      1   2.87500E+03   4.12500E+03  HDI001pr23c11       
 HD   I      1   3.12500E+03   4.12500E+03  HDI001pr23c12       
 HD   I      1   3.37500E+03   4.12500E+03  HDI001pr23c13       
 HD   I      1   3.62500E+03   4.12500E+03  HDI001pr23c14       
 HD   I      1   3.87500E+03   4.12500E+03  HDI001pr23c15       
 HD   I      1   4.12500E+03   4.12500E+03  HDI001pr23c16       
 HD   I      1   4.37500E+03   4.12500E+03  HDI001pr23c17       
 HD   I      1   4.62500E+03   4.12500E+03  HDI001pr23c18       
 HD   I      1   3.75000E+02   3.87500E+03  HDI001pr24c01       
 HD   I      1   6.25000E+02   3.87500E+03  HDI001pr24c02       
 HD   I      1   8.75000E+02   3.87500E+03  HDI001pr24c03       
 HD   I      1   1.12500E+03   3.87500E+03  HDI001pr24c04       
 HD   I      1   1.37500E+03   3.87500E+03  HDI001pr24c05       
 HD   I      1   1.62500E+03   3.87500E+03  HDI001pr24c06       
 HD   I      1   1.87500E+03   3.87500E+03  HDI001pr24c07       
 HD   I      1   2.12500E+03   3.87500E+03  HDI001pr24c08       
 HD   I      1   2.37500E+03   3.87500E+03  HDI001pr24c09       
 HD   I      1   2.62500E+03   3.87500E+03  HDI001pr24c10       
 HD   I      1   2.87500E+03   3.87500E+03  HDI001pr24c11       
 HD   I      1   3.12500E+03   3.87500E+03  HDI001pr24c12       
 HD   I      1   3.37500E+03   3.87500E+03  HDI001pr24c13       
 HD   I      1   3.62500E+03   3.87500E+03  HDI001pr24c14       
 HD   I      1   3.87500E+03   3.87500E+03  HDI001pr24c15       
 HD   I      1   4.12500E+03   3.87500E+03  HDI001pr24c16       
 HD   I      1   4.37500E+03   3.87500E+03  HDI001pr24c17       
 HD   I      1   4.62500E+03   3.87500E+03  HDI001pr24c18       
 HD   I      1   3.75000E+02   3.62500E+03  HDI001pr25c01       
 HD   I      1   6.25000E+02   3.62500E+03  HDI001pr25c02       
 HD   I      1   8.75000E+02   3.62500E+03  HDI001pr25c03       
 HD   I      1   1.12500E+03   3.62500E+03  HDI001pr25c04       
 HD   I      1   1.37500E+03   3.62500E+03  HDI001pr25c05       
 HD   I      1   1.62500E+03   3.62500E+03  HDI001pr25c06       
 HD   I      1   1.87500E+03   3.62500E+03  HDI001pr25c07       
 HD   I      1   2.12500E+03   3.62500E+03  HDI001pr25c08       
 HD   I      1   2.37500E+03   3.62500E+03  HDI001pr25c09       
 HD   I      1   2.62500E+03   3.62500E+03  HDI001pr25c10       
 HD   I      1   2.87500E+03   3.62500E+03  HDI001pr25c11       
 HD   I      1   3.12500E+03   3.62500E+03  HDI001pr25c12       
 HD   I      1   3.37500E+03   3.62500E+03  HDI001pr25c13       
 HD   I      1   3.62500E+03   3.62500E+03  HDI001pr25c14       
 HD   I      1   3.87500E+03   3.62500E+03  HDI001pr25c15       
 HD   I      1   4.12500E+03   3.62500E+03  HDI001pr25c16       
 HD   I      1   4.37500E+03   3.62500E+03  HDI001pr25c17       
 HD   I      1   4.62500E+03   3.62500E+03  HDI001pr25c18       
 HD   I      1   3.75000E+02   3.37500E+03  HDI001pr26c01       
 HD   I      1   6.25000E+02   3.37500E+03  HDI001pr26c02       
 HD   I      1   8.75000E+02   3.37500E+03  HDI001pr26c03       
 HD   I      1   1.12500E+03   3.37500E+03  HDI001pr26c04       
 HD   I      1   1.37500E+03   3.37500E+03  HDI001pr26c05       
 HD   I      1   1.62500E+03   3.37500E+03  HDI001pr26c06       
 HD   I      1   1.87500E+03   3.37500E+03  HDI001pr26c07       
 HD   I      1   2.12500E+03   3.37500E+03  HDI001pr26c08       
 HD   I      1   2.37500E+03   3.37500E+03  HDI001pr26c09       
 HD   I      1   2.62500E+03   3.37500E+03  HDI001pr26c10       
 HD   I      1   2.87500E+03   3.37500E+03  HDI001pr26c11       
 HD   I      1   3.12500E+03   3.37500E+03  HDI001pr26c12       
 HD   I      1   3.37500E+03   3.37500E+03  HDI001pr26c13       
 HD   I      1   3.62500E+03   3.37500E+03  HDI001pr26c14       
 HD   I      1   3.87500E+03   3.37500E+03  HDI001pr26c15       
 HD   I      1   4.12500E+03   3.37500E+03  HDI001pr26c16       
 HD   I      1   4.37500E+03   3.37500E+03  HDI001pr26c17       
 HD   I      1   4.62500E+03   3.37500E+03  HDI001pr26c18       
 HD   I      1   3.75000E+02   3.12500E+03  HDI001pr27c01       
 HD   I      1   6.25000E+02   3.12500E+03  HDI001pr27c02       
 HD   I      1   8.75000E+02   3.12500E+03  HDI001pr27c03       
 HD   I      1   1.12500E+03   3.12500E+03  HDI001pr27c04       
 HD   I      1   1.37500E+03   3.12500E+03  HDI001pr27c05       
 HD   I      1   1.62500E+03   3.12500E+03  HDI001pr27c06       
 HD   I      1   1.87500E+03   3.12500E+03  HDI001pr27c07       
 HD   I      1   2.12500E+03   3.12500E+03  HDI001pr27c08       
 HD   I      1   2.37500E+03   3.12500E+03  HDI001pr27c09       
 HD   I      1   2.62500E+03   3.12500E+03  HDI001pr27c10       
 HD   I      1   2.87500E+03   3.12500E+03  HDI001pr27c11       
 HD   I      1   3.12500E+03   3.12500E+03  HDI001pr27c12       
 HD   I      1   3.37500E+03   3.12500E+03  HDI001pr27c13       
 HD   I      1   3.62500E+03   3.12500E+03  HDI001pr27c14       
 HD   I      1   3.87500E+03   3.12500E+03  HDI001pr27c15       
 HD   I      1   4.12500E+03   3.12500E+03  HDI001pr27c16       
 HD   I      1   4.37500E+03   3.12500E+03  HDI001pr27c17       
 HD   I      1   4.62500E+03   3.12500E+03  HDI001pr27c18       
 HD   I      1   3.75000E+02   2.87500E+03  HDI001pr28c01       
 HD   I      1   6.25000E+02   2.87500E+03  HDI001pr28c02       
 HD   I      1   8.75000E+02   2.87500E+03  HDI001pr28c03       
 HD   I      1   1.12500E+03   2.87500E+03  HDI001pr28c04       
 HD   I      1   1.37500E+03   2.87500E+03  HDI001pr28c05       
 HD   I      1   1.62500E+03   2.87500E+03  HDI001pr28c06       
 HD   I      1   1.87500E+03   2.87500E+03  HDI001pr28c07       
 HD   I      1   2.12500E+03   2.87500E+03  HDI001pr28c08       
 HD   I      1   2.37500E+03   2.87500E+03  HDI001pr28c09       
 HD   I      1   2.62500E+03   2.87500E+03  HDI001pr28c10       
 HD   I      1   2.87500E+03   2.87500E+03  HDI001pr28c11       
 HD   I      1   3.12500E+03   2.87500E+03  HDI001pr28c12       
 HD   I      1   3.37500E+03   2.87500E+03  HDI001pr28c13       
 HD   I      1   3.62500E+03   2.87500E+03  HDI001pr28c14       
 HD   I      1   3.87500E+03   2.87500E+03  HDI001pr28c15       
 HD   I      1   4.12500E+03   2.87500E+03  HDI001pr28c16       
 HD   I      1   4.37500E+03   2.87500E+03  HDI001pr28c17       
 HD   I      1   4.62500E+03   2.87500E+03  HDI001pr28c18       
 HD   I      1   3.75000E+02   2.62500E+03  HDI001pr29c01       
 HD   I      1   6.25000E+02   2.62500E+03  HDI001pr29c02       
 HD   I      1   8.75000E+02   2.62500E+03  HDI001pr29c03       
 HD   I      1   1.12500E+03   2.62500E+03  HDI001pr29c04       
 HD   I      1   1.37500E+03   2.62500E+03  HDI001pr29c05       
 HD   I      1   1.62500E+03   2.62500E+03  HDI001pr29c06       
 HD   I      1   1.87500E+03   2.62500E+03  HDI001pr29c07       
 HD   I      1   2.12500E+03   2.62500E+03  HDI001pr29c08       
 HD   I      1   2.37500E+03   2.62500E+03  HDI001pr29c09       
 HD   I      1   2.62500E+03   2.62500E+03  HDI001pr29c10       
 HD   I      1   2.87500E+03   2.62500E+03  HDI001pr29c11       
 HD   I      1   3.12500E+03   2.62500E+03  HDI001pr29c12       
 HD   I      1   3.37500E+03   2.62500E+03  HDI001pr29c13       
 HD   I      1   3.62500E+03   2.62500E+03  HDI001pr29c14       
 HD   I      1   3.87500E+03   2.62500E+03  HDI001pr29c15       
 HD   I      1   4.12500E+03   2.62500E+03  HDI001pr29c16       
 HD   I      1   4.37500E+03   2.62500E+03  HDI001pr29c17       
 HD   I      1   4.62500E+03   2.62500E+03  HDI001pr29c18       
 HD   I      1   3.75000E+02   2.37500E+03  HDI001pr30c01       
 HD   I      1   6.25000E+02   2.37500E+03  HDI001pr30c02       
 HD   I      1   8.75000E+02   2.37500E+03  HDI001pr30c03       
 HD   I      1   1.12500E+03   2.37500E+03  HDI001pr30c04       
 HD   I      1   1.37500E+03   2.37500E+03  HDI001pr30c05       
 HD   I      1   1.62500E+03   2.37500E+03  HDI001pr30c06       
 HD   I      1   1.87500E+03   2.37500E+03  HDI001pr30c07       
 HD   I      1   2.12500E+03   2.37500E+03  HDI001pr30c08       
 HD   I      1   2.37500E+03   2.37500E+03  HDI001pr30c09       
 HD   I      1   2.62500E+03   2.37500E+03  HDI001pr30c10       
 HD   I      1   2.87500E+03   2.37500E+03  HDI001pr30c11       
 HD   I      1   3.12500E+03   2.37500E+03  HDI001pr30c12       
 HD   I      1   3.37500E+03   2.37500E+03  HDI001pr30c13       
 HD   I      1   3.62500E+03   2.37500E+03  HDI001pr30c14       
 HD   I      1   3.87500E+03   2.37500E+03  HDI001pr30c15       
 HD   I      1   4.12500E+03   2.37500E+03  HDI001pr30c16       
 HD   I      1   4.37500E+03   2.37500E+03  HDI001pr30c17       
 HD   I      1   4.62500E+03   2.37500E+03  HDI001pr30c18       
 HD   I      1   3.75000E+02   2.12500E+03  HDI001pr31c01       
 HD   I      1   6.25000E+02   2.12500E+03  HDI001pr31c02       
 HD   I      1   8.75000E+02   2.12500E+03  HDI001pr31c03       
 HD   I      1   1.12500E+03   2.12500E+03  HDI001pr31c04       
 HD   I      1   1.37500E+03   2.12500E+03  HDI001pr31c05       
 HD   I      1   1.62500E+03   2.12500E+03  HDI001pr31c06       
 HD   I      1   1.87500E+03   2.12500E+03  HDI001pr31c07       
 HD   I      1   2.12500E+03   2.12500E+03  HDI001pr31c08       
 HD   I      1   2.37500E+03   2.12500E+03  HDI001pr31c09       
 HD   I      1   2.62500E+03   2.12500E+03  HDI001pr31c10       
 HD   I      1   2.87500E+03   2.12500E+03  HDI001pr31c11       
 HD   I      1   3.12500E+03   2.12500E+03  HDI001pr31c12       
 HD   I      1   3.37500E+03   2.12500E+03  HDI001pr31c13       
 HD   I      1   3.62500E+03   2.12500E+03  HDI001pr31c14       
 HD   I      1   3.87500E+03   2.12500E+03  HDI001pr31c15       
 HD   I      1   4.12500E+03   2.12500E+03  HDI001pr31c16       
 HD   I      1   4.37500E+03   2.12500E+03  HDI001pr31c17       
 HD   I      1   4.62500E+03   2.12500E+03  HDI001pr31c18       
 HD   I      1   3.75000E+02   1.87500E+03  HDI001pr32c01       
 HD   I      1   6.25000E+02   1.87500E+03  HDI001pr32c02       
 HD   I      1   8.75000E+02   1.87500E+03  HDI001pr32c03       
 HD   I      1   1.12500E+03   1.87500E+03  HDI001pr32c04       
 HD   I      1   1.37500E+03   1.87500E+03  HDI001pr32c05       
 HD   I      1   1.62500E+03   1.87500E+03  HDI001pr32c06       
 HD   I      1   1.87500E+03   1.87500E+03  HDI001pr32c07       
 HD   I      1   2.12500E+03   1.87500E+03  HDI001pr32c08       
 HD   I      1   2.37500E+03   1.87500E+03  HDI001pr32c09       
 HD   I      1   2.62500E+03   1.87500E+03  HDI001pr32c10       
 HD   I      1   2.87500E+03   1.87500E+03  HDI001pr32c11       
 HD   I      1   3.12500E+03   1.87500E+03  HDI001pr32c12       
 HD   I      1   3.37500E+03   1.87500E+03  HDI001pr32c13       
 HD   I      1   3.62500E+03   1.87500E+03  HDI001pr32c14       
 HD   I      1   3.87500E+03   1.87500E+03  HDI001pr32c15       
 HD   I      1   4.12500E+03   1.87500E+03  HDI001pr32c16       
 HD   I      1   4.37500E+03   1.87500E+03  HDI001pr32c17       
 HD   I      1   4.62500E+03   1.87500E+03  HDI001pr32c18       
 HD   I      1   6.25000E+02   1.62500E+03  HDI001pr33c02       
 HD   I      1   8.75000E+02   1.62500E+03  HDI001pr33c03       
 HD   I      1   1.12500E+03   1.62500E+03  HDI001pr33c04       
 HD   I      1   1.37500E+03   1.62500E+03  HDI001pr33c05       
 HD   I      1   1.62500E+03   1.62500E+03  HDI001pr33c06       
 HD   I      1   1.87500E+03   1.62500E+03  HDI001pr33c07       
 HD   I      1   2.12500E+03   1.62500E+03  HDI001pr33c08       
 HD   I      1   2.37500E+03   1.62500E+03  HDI001pr33c09       
 HD   I      1   2.62500E+03   1.62500E+03  HDI001pr33c10       
 HD   I      1   2.87500E+03   1.62500E+03  HDI001pr33c11       
 HD   I      1   3.12500E+03   1.62500E+03  HDI001pr33c12       
 HD   I      1   3.37500E+03   1.62500E+03  HDI001pr33c13       
 HD   I      1   3.62500E+03   1.62500E+03  HDI001pr33c14       
 HD   I      1   3.87500E+03   1.62500E+03  HDI001pr33c15       
 HD   I      1   4.12500E+03   1.62500E+03  HDI001pr33c16       
 HD   I      1   4.37500E+03   1.62500E+03  HDI001pr33c17       
 HD   I      1   4.62500E+03   1.62500E+03  HDI001pr33c18       
 HD   I      1   8.75000E+02   1.37500E+03  HDI001pr34c03       
 HD   I      1   1.12500E+03   1.37500E+03  HDI001pr34c04       
 HD   I      1   1.37500E+03   1.37500E+03  HDI001pr34c05       
 HD   I      1   1.62500E+03   1.37500E+03  HDI001pr34c06       
 HD   I      1   1.87500E+03   1.37500E+03  HDI001pr34c07       
 HD   I      1   2.12500E+03   1.37500E+03  HDI001pr34c08       
 HD   I      1   2.37500E+03   1.37500E+03  HDI001pr34c09       
 HD   I      1   2.62500E+03   1.37500E+03  HDI001pr34c10       
 HD   I      1   2.87500E+03   1.37500E+03  HDI001pr34c11       
 HD   I      1   3.12500E+03   1.37500E+03  HDI001pr34c12       
 HD   I      1   3.37500E+03   1.37500E+03  HDI001pr34c13       
 HD   I      1   3.62500E+03   1.37500E+03  HDI001pr34c14       
 HD   I      1   3.87500E+03   1.37500E+03  HDI001pr34c15       
 HD   I      1   4.12500E+03   1.37500E+03  HDI001pr34c16       
 HD   I      1   4.37500E+03   1.37500E+03  HDI001pr34c17       
 HD   I      1   4.62500E+03   1.37500E+03  HDI001pr34c18       
 HD   I      1   1.12500E+03   1.12500E+03  HDI001pr35c04       
 HD   I      1   1.37500E+03   1.12500E+03  HDI001pr35c05       
 HD   I      1   1.62500E+03   1.12500E+03  HDI001pr35c06       
 HD   I      1   1.87500E+03   1.12500E+03  HDI001pr35c07       
 HD   I      1   2.12500E+03   1.12500E+03  HDI001pr35c08       
 HD   I      1   2.37500E+03   1.12500E+03  HDI001pr35c09       
 HD   I      1   2.62500E+03   1.12500E+03  HDI001pr35c10       
 HD   I      1   2.87500E+03   1.12500E+03  HDI001pr35c11       
 HD   I      1   3.12500E+03   1.12500E+03  HDI001pr35c12       
 HD   I      1   3.37500E+03   1.12500E+03  HDI001pr35c13       
 HD   I      1   3.62500E+03   1.12500E+03  HDI001pr35c14       
 HD   I      1   3.87500E+03   1.12500E+03  HDI001pr35c15       
 HD   I      1   4.12500E+03   1.12500E+03  HDI001pr35c16       
 HD   I      1   4.37500E+03   1.12500E+03  HDI001pr35c17       
 HD   I      1   4.62500E+03   1.12500E+03  HDI001pr35c18       
 HD   I      1   1.12500E+03   8.75000E+02  HDI001pr36c04       
 HD   I      1   1.37500E+03   8.75000E+02  HDI001pr36c05       
 HD   I      1   1.62500E+03   8.75000E+02  HDI001pr36c06       
 HD   I      1   1.87500E+03   8.75000E+02  HDI001pr36c07       
 HD   I      1   2.12500E+03   8.75000E+02  HDI001pr36c08       
 HD   I      1   2.37500E+03   8.75000E+02  HDI001pr36c09       
 HD   I      1   2.62500E+03   8.75000E+02  HDI001pr36c10       
 HD   I      1   2.87500E+03   8.75000E+02  HDI001pr36c11       
 HD   I      1   3.12500E+03   8.75000E+02  HDI001pr36c12       
 HD   I      1   3.37500E+03   8.75000E+02  HDI001pr36c13       
 HD   I      1   3.62500E+03   8.75000E+02  HDI001pr36c14       
 HD   I      1   3.87500E+03   8.75000E+02  HDI001pr36c15       
 HD   I      1   4.12500E+03   8.75000E+02  HDI001pr36c16       
 HD   I      1   4.37500E+03   8.75000E+02  HDI001pr36c17       
 HD   I      1   4.62500E+03   8.75000E+02  HDI001pr36c18       
 HD   I      1   1.37500E+03   6.25000E+02  HDI001pr37c05       
 HD   I      1   1.62500E+03   6.25000E+02  HDI001pr37c06       
 HD   I      1   1.87500E+03   6.25000E+02  HDI001pr37c07       
 HD   I      1   2.12500E+03   6.25000E+02  HDI001pr37c08       
 HD   I      1   2.37500E+03   6.25000E+02  HDI001pr37c09       
 HD   I      1   2.62500E+03   6.25000E+02  HDI001pr37c10       
 HD   I      1   2.87500E+03   6.25000E+02  HDI001pr37c11       
 HD   I      1   3.12500E+03   6.25000E+02  HDI001pr37c12       
 HD   I      1   3.37500E+03   6.25000E+02  HDI001pr37c13       
 HD   I      1   3.62500E+03   6.25000E+02  HDI001pr37c14       
 HD   I      1   3.87500E+03   6.25000E+02  HDI001pr37c15       
 HD   I      1   4.12500E+03   6.25000E+02  HDI001pr37c16       
 HD   I      1   4.37500E+03   6.25000E+02  HDI001pr37c17       
 HD   I      1   1.37500E+03   3.75000E+02  HDI001pr38c05       
 HD   I      1   1.62500E+03   3.75000E+02  HDI001pr38c06       
 HD   I      1   1.87500E+03   3.75000E+02  HDI001pr38c07       
 HD   I      1   2.12500E+03   3.75000E+02  HDI001pr38c08       
 HD   I      1   2.37500E+03   3.75000E+02  HDI001pr38c09       
 HD   I      1   2.62500E+03   3.75000E+02  HDI001pr38c10       
 HD   I      1   2.87500E+03   3.75000E+02  HDI001pr38c11       
 HD   I      1   3.12500E+03   3.75000E+02  HDI001pr38c12       
 HD   I      1   3.37500E+03   3.75000E+02  HDI001pr38c13       
 HD   I      1   3.62500E+03   3.75000E+02  HDI001pr38c14       
 HD   I      1   3.87500E+03   3.75000E+02  HDI001pr38c15       
 HD   I      1   4.12500E+03   3.75000E+02  HDI001pr38c16       
1
                            STRESS PERIOD NO.    1, LENGTH =   1.000000    
                            -----------------------------------------------

                              NUMBER OF TIME STEPS =     1

                               MULTIPLIER FOR DELT =     1.000

                            INITIAL TIME STEP SIZE =   1.000000    

 WELL NO.  LAYER   ROW   COL   STRESS RATE         
 --------------------------------------------------
      1      1      9     16      -708.5    
      2      1     11     13      -354.2    
      3      1     20     14      -337.0    
      4      1     26     10      -71.71    
      5      1     29      6      -62.21    
      6      1     34     12      -371.5    

      6 WELLS

 REACH NO.  LAYER   ROW   COL     STAGE      CONDUCTANCE     BOTTOM EL.         
 -------------------------------------------------------------------------------
      1      1      1     15       20.10           4511.           20.00    
      2      1      2     15       19.87           4511.           19.75    
      3      1      3     15       19.65           4511.           19.50    
      4      1      4     15       19.42           4511.           19.25    
      5      1      5     15       19.19           4511.           19.00    
      6      1      6     15       18.97           4511.           18.75    
      7      1      7     15       18.74           4511.           18.50    
      8      1      8     15       18.51           4511.           18.25    
      9      1      9     15       18.28           4511.           18.00    
     10      1     10     15       19.06           4511.           17.75    
     11      1     11     15       17.83           4511.           17.50    
     12      1     12     15       17.60           4511.           17.25    
     13      1     13     15       17.38           4511.           17.00    
     14      1     14     15       17.15           4511.           16.75    
     15      1     15     15       16.92           4511.           16.50    
     16      1     16     15       16.70           4511.           16.25    
     17      1     17     15       16.47           4511.           16.00    
     18      1     18     15       16.24           4511.           15.75    
     19      1     19     15       16.02           4511.           15.50    
     20      1     20     15       15.79           4511.           15.25    
     21      1     21     15       15.56           4511.           15.00    
     22      1     22     15       15.33           4511.           14.75    
     23      1     23     15       15.11           4511.           14.50    
     24      1     24     15       14.88           4511.           14.25    
     25      1     25     15       14.65           4511.           14.00    
     26      1     26     15       14.43           4511.           13.75    
     27      1     27     15       14.20           4511.           13.50    
     28      1     28     15       13.97           4511.           13.25    
     29      1     29     15       13.75           4511.           13.00    
     30      1     30     15       13.52           4511.           12.75    
     31      1     31     15       13.29           4511.           12.50    
     32      1     32     15       13.07           4511.           12.25    
     33      1     33     15       12.84           4511.           12.00    
     34      1     34     15       12.61           4511.           11.75    
     35      1     35     15       12.38           4511.           11.50    
     36      1     36     15       12.16           4511.           11.25    
     37      1     37     15       11.93           4511.           11.00    
     38      1     38     15       11.70           4511.           10.75    
     39      1     39     15       11.48           4511.           10.50    
     40      1     40     15       11.25           4511.           10.25    

     40 RIVER REACHES

                 RECHARGE =  1.382400E-04

 SOLVING FOR HEAD 


    18 CALLS TO PCG ROUTINE FOR TIME STEP   1 IN STRESS PERIOD    1
   229 TOTAL ITERATIONS

 MAXIMUM HEAD CHANGE FOR EACH ITERATION (1 INDICATES THE FIRST INNER ITERATION):

    HEAD CHANGE    HEAD CHANGE    HEAD CHANGE    HEAD CHANGE    HEAD CHANGE 
   LAYER,ROW,COL  LAYER,ROW,COL  LAYER,ROW,COL  LAYER,ROW,COL  LAYER,ROW,COL
 ---------------------------------------------------------------------------
  1  -64.72      0  -27.42      0   18.08      0   10.98      0   4.644    
   (  1, 39,  9)  (  1,  9,  4)  (  1,  9,  4)  (  1, 39,  9)  (  1, 35, 10)
  0  -2.571      0  -1.303      0 -0.4241      0 -0.2402      0 -0.1010    
   (  1, 30,  7)  (  1, 19,  2)  (  1, 37,  5)  (  1,  8,  5)  (  1, 30,  7)
  0 -0.6169E-01  0 -0.3186E-01  0  0.4542E-01  0  0.1509E-01  0 -0.5872E-02
   (  1,  8,  5)  (  1,  9,  4)  (  1,  9,  4)  (  1, 37, 11)  (  1, 38, 12)
  0  0.2430E-02  0 -0.8719E-03  0 -0.4344E-03  0  0.3425E-03  0 -0.2162E-03
   (  1, 37, 10)  (  1, 35,  8)  (  1,  1,  2)  (  1, 13,  3)  (  1,  9,  4)
  0 -0.1034E-03  0  0.8054E-04  0  0.2805E-04  0  0.2177E-04  0 -0.9698E-05
   (  1, 35, 10)  (  1, 30,  6)  (  1, 24,  7)  (  1, 29,  7)  (  1, 33, 11)
  1  -16.28      0  -12.33      0   4.560      0   3.125      0   1.477    
   (  1, 39,  9)  (  1,  9,  4)  (  1, 32,  1)  (  1, 39,  9)  (  1, 39, 12)
  0 -0.8021      0 -0.3241      0 -0.1393      0 -0.1090      0 -0.3868E-01
   (  1, 30,  6)  (  1, 19,  2)  (  1, 30,  7)  (  1,  8,  5)  (  1, 26,  8)
  0 -0.1904E-01  0 -0.1011E-01  0  0.1110E-01  0  0.5101E-02  0 -0.1875E-02
   (  1, 33,  2)  (  1, 10,  4)  (  1,  9,  4)  (  1, 36, 11)  (  1, 38, 12)
  0  0.7035E-03  0 -0.2465E-03  0 -0.1184E-03  0 -0.5792E-04  0 -0.4279E-04
   (  1, 37, 10)  (  1, 35,  8)  (  1, 34, 10)  (  1, 32, 12)  (  1,  9,  4)
  0  0.3443E-04  0  0.2218E-04  0  0.9475E-05  1   11.33      0  -8.651    
   (  1,  9,  4)  (  1, 30,  5)  (  1, 25,  9)  (  1,  9,  4)  (  1,  9,  4)
  0  -2.787      0 -0.6673      0 -0.5780      0  0.2328      0 -0.1888    
   (  1,  8,  5)  (  1, 10,  1)  (  1, 29,  7)  (  1, 39, 12)  (  1, 30,  4)
  0 -0.7187E-01  0 -0.4269E-01  0 -0.1712E-01  0 -0.8500E-02  0  0.5118E-02
   (  1, 23,  5)  (  1, 13,  4)  (  1, 27,  8)  (  1, 10,  4)  (  1,  9,  4)
  0 -0.3981E-02  0  0.1764E-02  0  0.5477E-03  0 -0.3144E-03  0 -0.1135E-03
   (  1, 31,  3)  (  1, 36, 11)  (  1, 35, 12)  (  1, 25, 10)  (  1, 36,  7)
  0 -0.6476E-04  0  0.3224E-04  0 -0.1985E-04  0  0.1189E-04  0 -0.1050E-04
   (  1, 33,  8)  (  1, 30,  6)  (  1, 38, 10)  (  1,  9,  4)  (  1, 12,  1)
  0  0.2885E-05  1   3.128      0  -2.142      0  -1.030      0  0.2821    
   (  1, 36, 10)  (  1,  9,  4)  (  1,  9,  4)  (  1,  8,  5)  (  1, 34, 12)
  0 -0.2981      0 -0.9214E-01  0 -0.8859E-01  0 -0.2464E-01  0 -0.1699E-01
   (  1, 30,  7)  (  1,  8,  5)  (  1, 31,  5)  (  1, 25,  5)  (  1,  9,  4)
  0 -0.7273E-02  0 -0.3252E-02  0  0.2003E-02  0 -0.1702E-02  0  0.5696E-03
   (  1, 30,  6)  (  1, 22,  8)  (  1,  9,  4)  (  1, 28,  7)  (  1, 36, 11)
  0  0.2109E-03  0 -0.1446E-03  0 -0.5290E-04  0 -0.3325E-04  0  0.1323E-04
   (  1, 27, 11)  (  1, 25, 10)  (  1, 34,  5)  (  1, 33,  8)  (  1, 30,  6)
  0 -0.9439E-05  1 -0.6754      0 -0.2851      0 -0.3248      0  0.1258    
   (  1,  9,  4)  (  1, 34, 12)  (  1,  8,  5)  (  1,  9,  4)  (  1, 34, 12)
  0 -0.1086      0 -0.3871E-01  0 -0.3081E-01  0  0.9022E-02  0 -0.7716E-02
   (  1, 30,  7)  (  1,  8,  5)  (  1, 31,  5)  (  1, 38, 13)  (  1,  9,  4)
  0 -0.2719E-02  0 -0.1492E-02  0  0.7222E-03  0 -0.5224E-03  0  0.2508E-03
   (  1, 33,  2)  (  1, 24,  9)  (  1,  9,  2)  (  1,  9,  4)  (  1, 34, 12)
  0 -0.7325E-04  0  0.4773E-04  0 -0.2005E-04  0 -0.1126E-04  0  0.5980E-05
   (  1,  4,  5)  (  1,  6,  7)  (  1, 36,  5)  (  1, 33,  8)  (  1, 35, 11)
  1 -0.3337      0  0.2065      0 -0.1212      0  0.4291E-01  0 -0.2801E-01
   (  1, 34, 12)  (  1,  9,  4)  (  1, 35, 10)  (  1, 34, 12)  (  1, 30,  6)
  0 -0.1285E-01  0 -0.7089E-02  0  0.4040E-02  0 -0.1464E-02  0 -0.1046E-02
   (  1, 33, 11)  (  1, 29,  7)  (  1, 31,  9)  (  1, 32,  1)  (  1,  9,  4)
  0  0.5339E-03  0 -0.3178E-03  0 -0.2249E-03  0  0.1080E-03  0  0.3436E-04
   (  1,  9,  4)  (  1,  9,  4)  (  1, 34,  7)  (  1, 34, 12)  (  1, 38,  9)
  0  0.1675E-04  0 -0.9876E-05  1 -0.1491      0  0.7895E-01  0 -0.3553E-01
   (  1, 36, 10)  (  1, 33,  9)  (  1, 34, 12)  (  1,  9,  4)  (  1, 35, 10)
  0 -0.1909E-01  0  0.1158E-01  0 -0.5639E-02  0 -0.2956E-02  0  0.1317E-02
   (  1, 29,  7)  (  1, 34, 12)  (  1, 33, 11)  (  1, 32,  7)  (  1, 30,  7)
  0  0.6405E-03  0 -0.4230E-03  0 -0.1984E-03  0  0.1203E-03  0 -0.9446E-04
   (  1, 34, 12)  (  1, 36, 10)  (  1, 25, 11)  (  1,  9,  4)  (  1,  9,  4)
  0  0.4600E-04  0  0.1309E-04  0  0.5097E-05  1 -0.6429E-01  0  0.2367E-01
   (  1, 35, 11)  (  1, 38,  9)  (  1, 35, 11)  (  1, 34, 12)  (  1,  9,  4)
  0 -0.1097E-01  0 -0.6843E-02  0  0.5299E-02  0 -0.1861E-02  0 -0.1190E-02
   (  1, 35, 10)  (  1, 29,  7)  (  1, 34, 12)  (  1, 33, 11)  (  1, 33, 11)
  0  0.4848E-03  0  0.2874E-03  0 -0.1704E-03  0 -0.7050E-04  0  0.4861E-04
   (  1, 30,  7)  (  1, 34, 12)  (  1, 36, 10)  (  1, 25, 11)  (  1,  9,  4)
  0 -0.2974E-04  0  0.1866E-04  0  0.4439E-05  1 -0.2688E-01  0  0.6697E-02
   (  1, 34,  7)  (  1, 35, 11)  (  1, 26, 10)  (  1, 34, 12)  (  1,  9,  4)
  0  0.3225E-02  0 -0.2304E-02  0  0.2005E-02  0  0.7123E-03  0 -0.6819E-03
   (  1,  8,  5)  (  1, 35, 11)  (  1, 34, 12)  (  1, 35, 10)  (  1, 33, 11)
  0 -0.2050E-03  0  0.1091E-03  0 -0.6695E-04  0  0.3046E-04  0 -0.1530E-04
   (  1,  7,  3)  (  1, 34, 12)  (  1, 36, 10)  (  1, 33,  8)  (  1,  9,  4)
  0  0.1437E-04  0  0.7197E-05  1 -0.1079E-01  0 -0.1758E-02  0  0.1344E-02
   (  1,  9,  4)  (  1, 35, 11)  (  1, 34, 12)  (  1, 35, 10)  (  1,  9,  4)
  0 -0.9864E-03  0  0.6603E-03  0  0.3165E-03  0 -0.3106E-03  0  0.7118E-04
   (  1,  9,  4)  (  1, 34, 12)  (  1, 30,  7)  (  1, 33, 11)  (  1, 32, 13)
  0  0.4097E-04  0 -0.2296E-04  0  0.1213E-04  0 -0.6558E-05  1 -0.4215E-02
   (  1,  8,  5)  (  1,  6,  3)  (  1, 33,  8)  (  1, 35,  8)  (  1, 34, 12)
  0 -0.5912E-03  0  0.5660E-03  0  0.3059E-03  0 -0.2228E-03  0  0.1388E-03
   (  1,  9,  4)  (  1,  9,  4)  (  1, 32,  6)  (  1, 30,  7)  (  1, 29,  7)
  0 -0.1232E-03  0  0.3079E-04  0 -0.1932E-04  0  0.1037E-04  0 -0.5105E-05
   (  1, 33, 11)  (  1, 32, 13)  (  1, 36, 10)  (  1,  7,  3)  (  1,  7,  3)
  1 -0.1665E-02  0 -0.2469E-03  0  0.1855E-03  0  0.1364E-03  0 -0.8606E-04
   (  1, 34, 12)  (  1,  9,  4)  (  1, 33, 12)  (  1, 33, 12)  (  1, 30,  7)
  0  0.5677E-04  0 -0.4705E-04  0  0.1416E-04  0 -0.8377E-05  1 -0.6798E-03
   (  1, 29,  7)  (  1, 33, 11)  (  1,  8,  5)  (  1,  9,  4)  (  1, 34, 12)
  0 -0.9644E-04  0  0.6548E-04  0  0.5879E-04  0 -0.3114E-04  0  0.2249E-04
   (  1,  9,  4)  (  1, 33, 12)  (  1, 33, 12)  (  1, 30,  7)  (  1, 29,  7)
  0 -0.1703E-04  0  0.6682E-05  1 -0.2860E-03  0 -0.4218E-04  0  0.2962E-04
   (  1, 33, 11)  (  1,  7,  3)  (  1, 34, 12)  (  1, 35, 10)  (  1,  9,  4)
  0  0.1812E-04  0 -0.1233E-04  0  0.9481E-05  1 -0.1230E-03  0  0.1539E-04
   (  1, 33, 12)  (  1, 30,  7)  (  1, 29,  7)  (  1, 34, 12)  (  1, 29,  7)
  0  0.1999E-04  0 -0.8158E-05  1 -0.3475E-04  0 -0.1949E-04  0  0.1136E-04
   (  1, 33, 12)  (  1,  9,  4)  (  1, 34, 12)  (  1, 34, 12)  (  1, 33, 12)
  0 -0.5719E-05  1 -0.1311E-04  0 -0.6624E-05  1  0.3524E-05
   (  1, 29,  7)  (  1, 34, 12)  (  1, 34, 12)  (  1,  9,  4)

 MAXIMUM RESIDUAL FOR EACH ITERATION (1 INDICATES THE FIRST INNER ITERATION):

    RESIDUAL       RESIDUAL       RESIDUAL       RESIDUAL       RESIDUAL    
   LAYER,ROW,COL  LAYER,ROW,COL  LAYER,ROW,COL  LAYER,ROW,COL  LAYER,ROW,COL
 ---------------------------------------------------------------------------
  1  -4071.      0  -2906.      0  -2067.      0  -1196.      0  -545.6    
   (  1, 39,  9)  (  1, 39,  9)  (  1, 39,  7)  (  1, 39,  7)  (  1, 39,  7)
  0  -306.7      0   158.7      0  -78.43      0  -53.82      0  -32.84    
   (  1, 39,  7)  (  1, 38,  7)  (  1, 39, 15)  (  1, 39, 15)  (  1, 39, 15)
  0  -20.29      0  -15.06      0  -10.21      0  -5.160      0  -2.441    
   (  1, 39, 15)  (  1, 39, 15)  (  1, 39, 15)  (  1, 39, 15)  (  1, 39, 15)
  0  -1.191      0 -0.5543      0 -0.2226      0 -0.1162      0 -0.8928E-01
   (  1, 39, 15)  (  1, 39, 15)  (  1, 39, 15)  (  1, 39, 15)  (  1, 39, 15)
  0 -0.4976E-01  0 -0.3032E-01  0 -0.1159E-01  0 -0.7679E-02  0 -0.3550E-02
   (  1, 39, 15)  (  1, 39, 15)  (  1, 39, 15)  (  1, 39, 15)  (  1, 39, 15)
  1  -851.2      0  -721.2      0  -454.8      0  -256.5      0  -117.4    
   (  1, 39,  9)  (  1, 39,  9)  (  1, 39,  7)  (  1, 39,  7)  (  1, 39,  7)
  0   60.05      0   36.10      0  -19.02      0  -12.78      0  -8.008    
   (  1, 38,  7)  (  1, 38,  7)  (  1, 39, 15)  (  1, 39, 15)  (  1, 39, 15)
  0  -4.705      0  -3.307      0  -2.392      0  -1.234      0 -0.6011    
   (  1, 39, 15)  (  1, 39, 15)  (  1, 39, 15)  (  1, 39, 15)  (  1, 39, 15)
  0 -0.2948      0 -0.1459      0 -0.6312E-01  0 -0.2908E-01  0 -0.2375E-01
   (  1, 39, 15)  (  1, 39, 15)  (  1, 39, 15)  (  1, 39, 15)  (  1, 39, 15)
  0 -0.1451E-01  0 -0.8666E-02  0 -0.3699E-02  1   567.5      0  -155.4    
   (  1, 39, 15)  (  1, 39, 15)  (  1, 39, 15)  (  1,  9,  4)  (  1, 39,  9)
  0  -105.5      0  -64.96      0  -25.67      0  -12.27      0   8.169    
   (  1, 39,  7)  (  1, 39,  7)  (  1, 39,  7)  (  1, 39,  7)  (  1, 38,  7)
  0  -4.209      0  -2.852      0  -1.751      0  -1.098      0 -0.9603    
   (  1, 39, 15)  (  1, 39, 15)  (  1, 39, 15)  (  1, 39, 15)  (  1, 39, 15)
  0 -0.5311      0 -0.3011      0 -0.1717      0 -0.8992E-01  0 -0.4653E-01
   (  1, 39, 15)  (  1, 39, 15)  (  1, 39, 15)  (  1, 39, 15)  (  1, 39, 15)
  0 -0.2111E-01  0 -0.1508E-01  0 -0.8157E-02  0 -0.6797E-02  0 -0.3325E-02
   (  1, 39, 15)  (  1, 39, 15)  (  1, 39, 15)  (  1, 39, 15)  (  1, 39, 15)
  0 -0.1409E-02  1   129.2      0   54.99      0  -30.61      0  -17.52    
   (  1, 39, 15)  (  1, 38, 15)  (  1, 38, 15)  (  1, 34, 12)  (  1, 39,  7)
  0  -7.370      0  -3.936      0  -2.749      0  -1.721      0  -1.006    
   (  1, 39,  7)  (  1,  9, 16)  (  1,  9, 16)  (  1,  9, 16)  (  1,  9, 16)
  0 -0.4812      0 -0.3030      0 -0.2677      0 -0.1581      0 -0.8820E-01
   (  1, 39, 15)  (  1, 39, 15)  (  1, 39, 15)  (  1, 39, 15)  (  1, 39, 15)
  0 -0.5309E-01  0 -0.2914E-01  0 -0.1506E-01  0 -0.7080E-02  0 -0.5296E-02
   (  1, 39, 15)  (  1, 39, 15)  (  1, 39, 15)  (  1, 39, 15)  (  1, 39, 15)
  0 -0.3137E-02  1   35.23      0   19.56      0  -13.53      0  -7.272    
   (  1, 39, 15)  (  1, 38, 15)  (  1, 19, 15)  (  1, 34, 12)  (  1, 34, 12)
  0  -3.132      0  -1.859      0  -1.324      0 -0.8200      0 -0.5120    
   (  1, 34, 12)  (  1,  9, 16)  (  1,  9, 16)  (  1,  9, 16)  (  1,  9, 16)
  0 -0.2422      0 -0.1208      0 -0.6363E-01  0 -0.4767E-01  0 -0.2625E-01
   (  1,  9, 16)  (  1,  9, 16)  (  1,  9, 16)  (  1, 39, 15)  (  1, 39, 15)
  0 -0.1538E-01  0 -0.8680E-02  0 -0.4494E-02  0 -0.2171E-02  0 -0.1253E-02
   (  1, 39, 15)  (  1, 39, 15)  (  1, 39, 15)  (  1, 39, 15)  (  1, 39, 15)
  1   21.10      0   10.92      0  -5.450      0  -2.523      0  -1.373    
   (  1, 39, 15)  (  1, 38, 15)  (  1, 34, 12)  (  1, 34, 12)  (  1, 34, 12)
  0 -0.6990      0 -0.4820      0 -0.3133      0 -0.1940      0 -0.1016    
   (  1,  9, 16)  (  1,  9, 16)  (  1,  9, 16)  (  1,  9, 16)  (  1,  9, 16)
  0 -0.5640E-01  0 -0.4336E-01  0 -0.2252E-01  0 -0.8379E-02  0 -0.4169E-02
   (  1,  9, 16)  (  1,  9, 16)  (  1,  9, 16)  (  1,  9, 16)  (  1, 39, 15)
  0 -0.2262E-02  0 -0.1149E-02  1   9.762      0   5.173      0  -2.541    
   (  1, 39, 15)  (  1, 39, 15)  (  1, 39, 15)  (  1, 39, 15)  (  1, 34, 12)
  0  -1.475      0 -0.6076      0 -0.2921      0 -0.2142      0 -0.1464    
   (  1, 34, 12)  (  1, 34, 12)  (  1, 34, 12)  (  1,  9, 16)  (  1,  9, 16)
  0 -0.9476E-01  0 -0.4836E-01  0 -0.2351E-01  0 -0.1594E-01  0 -0.9606E-02
   (  1,  9, 16)  (  1,  9, 16)  (  1,  9, 16)  (  1,  9, 16)  (  1,  9, 16)
  0 -0.3558E-02  0 -0.1511E-02  0  0.6923E-03  1   3.664      0   2.314    
   (  1,  9, 16)  (  1,  9, 16)  (  1, 31, 15)  (  1, 39, 15)  (  1, 39, 15)
  0  -1.112      0 -0.6623      0 -0.2593      0 -0.1291      0 -0.8603E-01
   (  1, 34, 12)  (  1, 34, 12)  (  1, 34, 12)  (  1, 34, 12)  (  1,  9, 16)
  0 -0.5798E-01  0 -0.3650E-01  0 -0.1862E-01  0 -0.8789E-02  0 -0.6906E-02
   (  1,  9, 16)  (  1,  9, 16)  (  1,  9, 16)  (  1,  9, 16)  (  1,  9, 16)
  0 -0.3711E-02  0 -0.1376E-02  0  0.6313E-03  1   1.386      0  0.8912    
   (  1,  9, 16)  (  1,  9, 16)  (  1, 31, 15)  (  1, 39, 15)  (  1, 39, 15)
  0  0.5059      0 -0.2655      0 -0.1052      0 -0.6004E-01  0 -0.3473E-01
   (  1, 39, 15)  (  1, 34, 12)  (  1, 34, 12)  (  1, 34, 12)  (  1, 34, 12)
  0 -0.2064E-01  0 -0.1306E-01  0 -0.6627E-02  0 -0.3043E-02  0 -0.1950E-02
   (  1,  9, 16)  (  1,  9, 16)  (  1,  9, 16)  (  1,  9, 16)  (  1,  9, 16)
  0 -0.1339E-02  0  0.5443E-03  1  0.5591      0  0.3192      0  0.1845    
   (  1,  9, 16)  (  1, 31, 15)  (  1, 39, 15)  (  1, 39, 15)  (  1, 39, 15)
  0  0.1149      0  0.4742E-01  0  0.2808E-01  0  0.1426E-01  0  0.7455E-02
   (  1, 38, 15)  (  1, 19, 15)  (  1, 19, 15)  (  1, 19, 15)  (  1, 32, 14)
  0  0.4677E-02  0 -0.2143E-02  0 -0.1021E-02  0  0.5912E-03  1  0.2202    
   (  1, 32, 14)  (  1,  9, 16)  (  1,  9, 16)  (  1, 37,  9)  (  1, 39, 15)
  0  0.1594      0  0.1062      0  0.5473E-01  0  0.2364E-01  0  0.1327E-01
   (  1, 39, 15)  (  1, 39, 15)  (  1, 38, 15)  (  1, 38, 15)  (  1, 19, 15)
  0  0.6633E-02  0  0.3402E-02  0  0.1965E-02  0  0.8025E-03  0 -0.4514E-03
   (  1, 19, 15)  (  1, 32, 14)  (  1, 32, 14)  (  1, 32, 14)  (  1, 31, 14)
  1  0.7942E-01  0  0.6170E-01  0  0.4302E-01  0  0.2369E-01  0  0.1123E-01
   (  1, 39, 15)  (  1, 39, 15)  (  1, 39, 15)  (  1, 39, 15)  (  1, 38, 15)
  0  0.6001E-02  0  0.3257E-02  0  0.1626E-02  0  0.1007E-02  1  0.2674E-01
   (  1, 19, 15)  (  1, 32, 15)  (  1, 32, 15)  (  1, 32, 14)  (  1, 39, 15)
  0  0.2104E-01  0  0.1567E-01  0  0.9300E-02  0  0.4762E-02  0  0.2464E-02
   (  1, 39, 15)  (  1, 39, 15)  (  1, 39, 15)  (  1, 39, 15)  (  1, 32, 15)
  0  0.1507E-02  0  0.7622E-03  1  0.8698E-02  0  0.6604E-02  0  0.5042E-02
   (  1, 32, 15)  (  1, 32, 15)  (  1, 39, 15)  (  1, 39, 15)  (  1, 39, 15)
  0  0.3359E-02  0  0.1702E-02  0  0.9698E-03  1  0.3329E-02  0  0.2710E-02
   (  1, 39, 15)  (  1, 39, 15)  (  1, 39, 15)  (  1, 34, 15)  (  1, 35, 11)
  0  0.1559E-02  0  0.1262E-02  1  0.2864E-02  0 -0.1500E-02  0  0.1024E-02
   (  1, 35, 11)  (  1, 35, 11)  (  1, 34, 12)  (  1, 34, 11)  (  1, 35, 11)
  0  0.7067E-03  1  0.1266E-02  0  0.7496E-03  1  0.1359E-02
   (  1, 35, 11)  (  1, 34, 12)  (  1, 34, 12)  (  1, 34, 12)



 OUTPUT CONTROL FOR STRESS PERIOD    1   TIME STEP    1
    SAVE HEAD FOR ALL LAYERS
    SAVE BUDGET
 UBDSV2 SAVING "   CONSTANT HEAD" ON UNIT  53 AT TIME STEP  1, STRESS PERIOD   1
 UBDSV1 SAVING "FLOW RIGHT FACE " ON UNIT  53 AT TIME STEP  1, STRESS PERIOD   1
 UBDSV1 SAVING "FLOW FRONT FACE " ON UNIT  53 AT TIME STEP  1, STRESS PERIOD   1

 HEAD WILL BE SAVED ON UNIT   51 AT END OF TIME STEP    1, STRESS PERIOD    1
1
  VOLUMETRIC BUDGET FOR ENTIRE MODEL AT END OF TIME STEP    1, STRESS PERIOD   1
  ------------------------------------------------------------------------------

     CUMULATIVE VOLUMES      L**3       RATES FOR THIS TIME STEP      L**3/T
     ------------------                 ------------------------

           IN:                                      IN:
           ---                                      ---
             STORAGE =           0.0000               STORAGE =           0.0000
       CONSTANT HEAD =           0.0000         CONSTANT HEAD =           0.0000
               WELLS =           0.0000                 WELLS =           0.0000
       RIVER LEAKAGE =         363.9366         RIVER LEAKAGE =         363.9366
            RECHARGE =        6004.7998              RECHARGE =        6004.7998

            TOTAL IN =        6368.7363              TOTAL IN =        6368.7363

          OUT:                                     OUT:
          ----                                     ----
             STORAGE =           0.0000               STORAGE =           0.0000
       CONSTANT HEAD =         409.0465         CONSTANT HEAD =         409.0465
               WELLS =        1905.1200                 WELLS =        1905.1200
       RIVER LEAKAGE =        4054.6243         RIVER LEAKAGE =        4054.6243
            RECHARGE =           0.0000              RECHARGE =           0.0000

           TOTAL OUT =        6368.7910             TOTAL OUT =        6368.7910

            IN - OUT =      -5.4688E-02              IN - OUT =      -5.4688E-02

 PERCENT DISCREPANCY =          -0.00     PERCENT DISCREPANCY =          -0.00






         TIME SUMMARY AT END OF TIME STEP    1 IN STRESS PERIOD    1
                    SECONDS     MINUTES      HOURS       DAYS        YEARS
                    -----------------------------------------------------------
   TIME STEP LENGTH  86400.      1440.0      24.000      1.0000     2.73785E-03
 STRESS PERIOD TIME  86400.      1440.0      24.000      1.0000     2.73785E-03
         TOTAL TIME  86400.      1440.0      24.000      1.0000     2.73785E-03
1
 A TOTAL OF 640 HYDROGRAPH POINTS HAVE BEEN PREPARED.
1
                            STRESS PERIOD NO.    2, LENGTH =   1825.000    
                            -----------------------------------------------

                              NUMBER OF TIME STEPS =     1

                               MULTIPLIER FOR DELT =     1.000

                            INITIAL TIME STEP SIZE =   1825.000    

 WELL NO.  LAYER   ROW   COL   STRESS RATE         
 --------------------------------------------------
      1      1      9     16      -885.6    
      2      1     11     13      -442.8    
      3      1     20     14      -421.2    
      4      1     26     10      -89.64    
      5      1     29      6      -77.76    
      6      1     34     12      -464.4    

      6 WELLS

 REUSING NON-PARAMETER RIVER REACHES FROM LAST STRESS PERIOD

     40 RIVER REACHES

                 RECHARGE =  9.000000E-05

 SOLVING FOR HEAD 


    22 CALLS TO PCG ROUTINE FOR TIME STEP   1 IN STRESS PERIOD    2
   102 TOTAL ITERATIONS

 MAXIMUM HEAD CHANGE FOR EACH ITERATION (1 INDICATES THE FIRST INNER ITERATION):

    HEAD CHANGE    HEAD CHANGE    HEAD CHANGE    HEAD CHANGE    HEAD CHANGE 
   LAYER,ROW,COL  LAYER,ROW,COL  LAYER,ROW,COL  LAYER,ROW,COL  LAYER,ROW,COL
 ---------------------------------------------------------------------------
  1  -1.192      0  0.7094E-01  0  0.2804E-01  0  0.5932E-02  0  0.1476E-02
   (  1, 34, 12)  (  1, 11, 13)  (  1, 34, 12)  (  1, 35, 10)  (  1, 36, 11)
  0  0.4746E-03  0 -0.1480E-03  0 -0.4986E-04  0 -0.9563E-05  1 -0.6240    
   (  1, 35, 11)  (  1,  9,  4)  (  1,  8,  5)  (  1,  9,  4)  (  1, 34, 12)
  0 -0.4379E-01  0  0.9157E-02  0  0.2531E-02  0 -0.6483E-03  0 -0.2243E-03
   (  1, 35, 11)  (  1, 34, 12)  (  1, 35, 10)  (  1,  9,  4)  (  1,  8,  5)
  0 -0.6262E-04  0  0.1404E-04  0  0.3364E-05  1 -0.3383      0 -0.2508E-01
   (  1,  9,  4)  (  1, 16, 10)  (  1, 35,  6)  (  1, 34, 12)  (  1, 35, 11)
  0 -0.4591E-02  0  0.1219E-02  0 -0.2997E-03  0 -0.9359E-04  0 -0.2245E-04
   (  1, 35, 11)  (  1, 35, 10)  (  1,  9,  4)  (  1,  8,  5)  (  1,  9,  4)
  0  0.6511E-05  1 -0.1898      0 -0.1470E-01  0 -0.2037E-02  0  0.6152E-03
   (  1, 31, 14)  (  1, 34, 12)  (  1, 35, 11)  (  1, 35, 11)  (  1, 35, 10)
  0 -0.1311E-03  0 -0.5529E-04  0 -0.8935E-05  1 -0.1082      0 -0.8755E-02
   (  1,  9,  4)  (  1, 36, 10)  (  1,  9,  4)  (  1, 34, 12)  (  1, 35, 11)
  0 -0.9525E-03  0  0.2766E-03  0 -0.8155E-04  0 -0.2683E-04  0 -0.4130E-05
   (  1, 33, 13)  (  1, 35, 10)  (  1, 36, 10)  (  1, 36, 10)  (  1,  9,  4)
  1 -0.6201E-01  0 -0.5168E-02  0  0.6220E-03  0  0.1078E-03  0 -0.4667E-04
   (  1, 34, 12)  (  1, 35, 11)  (  1, 35, 10)  (  1, 35, 10)  (  1, 36, 10)
  0 -0.1169E-04  0  0.2449E-05  1 -0.3560E-01  0 -0.3017E-02  0  0.3895E-03
   (  1, 36, 10)  (  1, 31, 14)  (  1, 34, 12)  (  1, 35, 11)  (  1, 35, 10)
  0 -0.4655E-04  0 -0.2328E-04  0 -0.5131E-05  1 -0.2046E-01  0 -0.1750E-02
   (  1, 36, 10)  (  1, 36, 10)  (  1, 36, 10)  (  1, 34, 12)  (  1, 35, 11)
  0  0.2310E-03  0 -0.3038E-04  0 -0.1111E-04  0  0.2478E-05  1 -0.1176E-01
   (  1, 35, 10)  (  1, 36, 10)  (  1, 36, 10)  (  1, 37,  5)  (  1, 34, 12)
  0 -0.1011E-02  0  0.1340E-03  0 -0.1859E-04  0 -0.5625E-05  1 -0.6760E-02
   (  1, 35, 11)  (  1, 35, 10)  (  1, 36, 10)  (  1, 36, 10)  (  1, 34, 12)
  0 -0.5828E-03  0  0.7724E-04  0 -0.1114E-04  0 -0.2971E-05  1 -0.3886E-02
   (  1, 35, 11)  (  1, 35, 10)  (  1, 36, 10)  (  1, 36, 10)  (  1, 34, 12)
  0 -0.3356E-03  0  0.4441E-04  0 -0.6499E-05  1 -0.2234E-02  0 -0.1931E-03
   (  1, 35, 11)  (  1, 35, 10)  (  1, 36, 10)  (  1, 34, 12)  (  1, 35, 11)
  0  0.2520E-04  0 -0.3431E-05  1 -0.1284E-02  0 -0.1110E-03  0  0.1403E-04
   (  1, 35, 10)  (  1, 36, 10)  (  1, 34, 12)  (  1, 35, 11)  (  1, 35, 10)
  0 -0.1684E-05  1 -0.7390E-03  0 -0.6384E-04  0  0.7711E-05  1 -0.4243E-03
   (  1, 36, 10)  (  1, 34, 12)  (  1, 35, 11)  (  1, 35, 10)  (  1, 34, 12)
  0 -0.3665E-04  0  0.3873E-05  1 -0.2443E-03  0 -0.2106E-04  0  0.1958E-05
   (  1, 35, 11)  (  1, 35, 10)  (  1, 34, 12)  (  1, 35, 11)  (  1, 35, 10)
  1 -0.1401E-03  0 -0.1214E-04  0  0.1166E-05  1 -0.8062E-04  0 -0.6989E-05
   (  1, 34, 12)  (  1, 35, 11)  (  1, 35, 10)  (  1, 34, 12)  (  1, 35, 11)
  1 -0.4640E-04  0 -0.3602E-05  1 -0.2657E-04  0 -0.1447E-05  1 -0.1467E-04
   (  1, 34, 12)  (  1, 35, 11)  (  1, 34, 12)  (  1, 35, 11)  (  1, 34, 12)
  0 -0.8567E-06  1 -0.8754E-05
   (  1,  8,  5)  (  1, 34, 12)

 MAXIMUM RESIDUAL FOR EACH ITERATION (1 INDICATES THE FIRST INNER ITERATION):

    RESIDUAL       RESIDUAL       RESIDUAL       RESIDUAL       RESIDUAL    
   LAYER,ROW,COL  LAYER,ROW,COL  LAYER,ROW,COL  LAYER,ROW,COL  LAYER,ROW,COL
 ---------------------------------------------------------------------------
  1   12.86      0   3.968      0   1.034      0  0.3192      0  0.9700E-01
   (  1, 19, 15)  (  1, 19, 15)  (  1, 19, 15)  (  1,  9, 15)  (  1,  9, 15)
  0  0.3067E-01  0  0.1201E-01  0  0.3807E-02  0  0.1191E-02  1   6.341    
   (  1, 19, 15)  (  1, 19, 15)  (  1, 19, 15)  (  1, 19, 15)  (  1,  9, 16)
  0   1.352      0  0.4032      0  0.1232      0  0.4226E-01  0  0.1407E-01
   (  1, 19, 15)  (  1,  8, 17)  (  1, 19, 15)  (  1, 19, 15)  (  1, 19, 15)
  0  0.4972E-02  0  0.1488E-02  0  0.4761E-03  1   3.012      0  0.7290    
   (  1, 19, 15)  (  1, 31, 15)  (  1, 31, 15)  (  1, 35, 11)  (  1, 35, 11)
  0 -0.1973      0  0.5671E-01  0  0.2266E-01  0  0.5733E-02  0  0.2333E-02
   (  1, 35, 10)  (  1, 32, 14)  (  1, 32, 14)  (  1, 19, 15)  (  1, 31, 15)
  0  0.8654E-03  1   1.795      0  0.3678      0 -0.1030      0  0.3475E-01
   (  1, 31, 15)  (  1, 35, 11)  (  1, 35, 11)  (  1, 35, 10)  (  1, 32, 14)
  0  0.1268E-01  0 -0.2617E-02  0  0.1233E-02  1   1.064      0  0.1789    
   (  1, 32, 14)  (  1, 31, 14)  (  1, 31, 15)  (  1, 35, 11)  (  1, 35, 11)
  0 -0.4876E-01  0  0.1987E-01  0  0.6299E-02  0 -0.1465E-02  0  0.6338E-03
   (  1, 32, 13)  (  1, 32, 14)  (  1, 32, 14)  (  1, 31, 14)  (  1, 31, 15)
  1  0.6252      0 -0.9904E-01  0 -0.2394E-01  0  0.1070E-01  0  0.2964E-02
   (  1, 35, 11)  (  1, 35, 10)  (  1, 32, 13)  (  1, 32, 14)  (  1, 32, 14)
  0 -0.7763E-03  0  0.3263E-03  1  0.3645      0 -0.5747E-01  0  0.1288E-01
   (  1, 31, 14)  (  1, 31, 15)  (  1, 35, 11)  (  1, 35, 10)  (  1, 32, 14)
  0  0.5415E-02  0  0.1403E-02  0  0.3969E-03  1  0.2115      0 -0.3307E-01
   (  1, 32, 14)  (  1, 32, 14)  (  1, 37,  9)  (  1, 35, 11)  (  1, 35, 10)
  0  0.7438E-02  0  0.2726E-02  0  0.7016E-03  0  0.2162E-03  1  0.1222    
   (  1, 32, 14)  (  1, 32, 14)  (  1, 32, 14)  (  1, 37,  9)  (  1, 35, 11)
  0 -0.1899E-01  0  0.4291E-02  0  0.1427E-02  0  0.3523E-03  1  0.7052E-01
   (  1, 35, 10)  (  1, 32, 14)  (  1, 32, 14)  (  1, 32, 14)  (  1, 35, 11)
  0 -0.1090E-01  0  0.2475E-02  0  0.7563E-03  0 -0.1740E-03  1  0.4063E-01
   (  1, 35, 10)  (  1, 32, 14)  (  1, 32, 14)  (  1, 31, 14)  (  1, 35, 11)
  0 -0.6261E-02  0  0.1425E-02  0  0.4181E-03  1  0.2340E-01  0 -0.3594E-02
   (  1, 35, 10)  (  1, 32, 14)  (  1, 32, 14)  (  1, 35, 11)  (  1, 35, 10)
  0  0.8275E-03  0  0.2953E-03  1  0.1347E-01  0 -0.2059E-02  0  0.4827E-03
   (  1, 32, 14)  (  1, 32, 14)  (  1, 35, 11)  (  1, 35, 10)  (  1, 32, 14)
  0  0.2127E-03  1  0.7761E-02  0 -0.1178E-02  0  0.2822E-03  1  0.4480E-02
   (  1, 32, 14)  (  1, 35, 11)  (  1, 35, 10)  (  1, 32, 14)  (  1, 35, 11)
  0 -0.6743E-03  0 -0.1949E-03  1  0.2592E-02  0 -0.3910E-03  0 -0.1359E-03
   (  1, 35, 10)  (  1, 32, 13)  (  1, 35, 11)  (  1, 35, 10)  (  1, 32, 13)
  1  0.1492E-02  0 -0.2277E-03  0 -0.7645E-04  1  0.8594E-03  0 -0.1320E-03
   (  1, 35, 11)  (  1, 35, 10)  (  1, 32, 13)  (  1, 35, 11)  (  1, 35, 10)
  1  0.5037E-03  0  0.1290E-03  1  0.2947E-03  0  0.1419E-03  1  0.1645E-03
   (  1, 35, 11)  (  1, 35, 11)  (  1, 35, 11)  (  1, 35, 11)  (  1, 35, 11)
  0  0.9170E-04  1  0.9993E-04
   (  1, 35, 11)  (  1, 35, 11)



 OUTPUT CONTROL FOR STRESS PERIOD    2   TIME STEP    1
    SAVE HEAD FOR ALL LAYERS
    SAVE BUDGET
 UBDSV1 SAVING "         STORAGE" ON UNIT  53 AT TIME STEP  1, STRESS PERIOD   2
 UBDSV2 SAVING "   CONSTANT HEAD" ON UNIT  53 AT TIME STEP  1, STRESS PERIOD   2
 UBDSV1 SAVING "FLOW RIGHT FACE " ON UNIT  53 AT TIME STEP  1, STRESS PERIOD   2
 UBDSV1 SAVING "FLOW FRONT FACE " ON UNIT  53 AT TIME STEP  1, STRESS PERIOD   2

 HEAD WILL BE SAVED ON UNIT   51 AT END OF TIME STEP    1, STRESS PERIOD    2
1
  VOLUMETRIC BUDGET FOR ENTIRE MODEL AT END OF TIME STEP    1, STRESS PERIOD   2
  ------------------------------------------------------------------------------

     CUMULATIVE VOLUMES      L**3       RATES FOR THIS TIME STEP      L**3/T
     ------------------                 ------------------------

           IN:                                      IN:
           ---                                      ---
             STORAGE =     2765482.2500               STORAGE =        1515.3328
       CONSTANT HEAD =           0.0000         CONSTANT HEAD =           0.0000
               WELLS =           0.0000                 WELLS =           0.0000
       RIVER LEAKAGE =      961466.1250         RIVER LEAKAGE =         526.6313
            RECHARGE =     7140614.5000              RECHARGE =        3909.3750

            TOTAL IN =    10867563.0000              TOTAL IN =        5951.3389

          OUT:                                     OUT:
          ----                                     ----
             STORAGE =           0.0000               STORAGE =           0.0000
       CONSTANT HEAD =      653700.8125         CONSTANT HEAD =         357.9681
               WELLS =     4347960.0000                 WELLS =        2381.3999
       RIVER LEAKAGE =     5866000.5000         RIVER LEAKAGE =        3212.0251
            RECHARGE =           0.0000              RECHARGE =           0.0000

           TOTAL OUT =    10867662.0000             TOTAL OUT =        5951.3931

            IN - OUT =         -99.0000              IN - OUT =      -5.4199E-02

 PERCENT DISCREPANCY =          -0.00     PERCENT DISCREPANCY =          -0.00






         TIME SUMMARY AT END OF TIME STEP    1 IN STRESS PERIOD    2
                    SECONDS     MINUTES      HOURS       DAYS        YEARS
                    -----------------------------------------------------------
   TIME STEP LENGTH 1.57680E+08 2.62800E+06  43800.      1825.0      4.9966    
 STRESS PERIOD TIME 1.57680E+08 2.62800E+06  43800.      1825.0      4.9966    
         TOTAL TIME 1.57766E+08 2.62944E+06  43824.      1826.0      4.9993    
1
1
                            STRESS PERIOD NO.    3, LENGTH =   1.000000    
                            -----------------------------------------------

                              NUMBER OF TIME STEPS =     1

                               MULTIPLIER FOR DELT =     1.000

                            INITIAL TIME STEP SIZE =   1.000000    

 WELL NO.  LAYER   ROW   COL   STRESS RATE         
 --------------------------------------------------
      1      1      9     16      -885.6    
      2      1     11     13      -442.8    
      3      1     20     14      -421.2    
      4      1     26     10      -89.64    
      5      1     29      6      -77.76    
      6      1     34     12      -464.4    

      6 WELLS

 REUSING NON-PARAMETER RIVER REACHES FROM LAST STRESS PERIOD

     40 RIVER REACHES

                 RECHARGE =  9.000000E-05

 SOLVING FOR HEAD 

 CELL CONVERSIONS FOR ITER.=  6  LAYER=  1  STEP=  1  PERIOD=   3   (ROW,COL)
    DRY( 34, 12)   


    16 CALLS TO PCG ROUTINE FOR TIME STEP   1 IN STRESS PERIOD    3
   219 TOTAL ITERATIONS

 MAXIMUM HEAD CHANGE FOR EACH ITERATION (1 INDICATES THE FIRST INNER ITERATION):

    HEAD CHANGE    HEAD CHANGE    HEAD CHANGE    HEAD CHANGE    HEAD CHANGE 
   LAYER,ROW,COL  LAYER,ROW,COL  LAYER,ROW,COL  LAYER,ROW,COL  LAYER,ROW,COL
 ---------------------------------------------------------------------------
  1  -1.458      0  -1.259      0 -0.7912      0 -0.3796      0 -0.2603    
   (  1,  9,  4)  (  1,  8,  5)  (  1, 32,  1)  (  1, 30,  7)  (  1,  8,  5)
  0 -0.1233      0 -0.8892E-01  0 -0.4646E-01  0 -0.1896E-01  0 -0.1313E-01
   (  1, 32,  6)  (  1,  2,  5)  (  1,  4,  1)  (  1, 38, 13)  (  1,  4,  1)
  0 -0.6040E-02  0 -0.3457E-02  0 -0.2355E-02  0  0.1224E-02  0  0.5182E-03
   (  1,  2,  8)  (  1,  9,  4)  (  1, 34, 11)  (  1, 33,  2)  (  1, 25, 10)
  0 -0.1943E-03  0 -0.8665E-04  0  0.4592E-04  0 -0.2452E-04  0  0.1971E-04
   (  1, 33, 11)  (  1, 36,  9)  (  1, 28,  1)  (  1, 30,  6)  (  1, 12,  2)
  0 -0.1044E-04  0 -0.4936E-05  1 -0.7224      0 -0.2742      0  0.8780E-01
   (  1,  9,  4)  (  1, 32, 10)  (  1, 34, 12)  (  1, 34, 12)  (  1,  9,  4)
  0 -0.7202E-01  0  0.3477E-01  0 -0.2948E-01  0 -0.1637E-01  0  0.1056E-01
   (  1,  9,  4)  (  1, 28,  1)  (  1, 32,  6)  (  1,  6,  3)  (  1,  8,  4)
  0 -0.5050E-02  0  0.2811E-02  0  0.1066E-02  0 -0.4729E-03  0  0.3256E-03
   (  1,  6,  1)  (  1, 35, 10)  (  1, 22,  8)  (  1, 10,  1)  (  1,  9,  4)
  0 -0.2895E-03  0  0.8164E-04  0 -0.3416E-04  0  0.1563E-04  0  0.1153E-04
   (  1,  9,  4)  (  1, 25,  3)  (  1, 38, 11)  (  1, 34, 12)  (  1, 30,  7)
  0 -0.6336E-05  1 -0.8062      0 -0.1904      0  0.7229E-01  0 -0.6145E-01
   (  1, 33,  9)  (  1, 34, 12)  (  1, 34, 12)  (  1, 32,  9)  (  1, 29,  7)
  0  0.3859E-01  0 -0.2622E-01  0 -0.1318E-01  0 -0.7383E-02  0  0.2850E-02
   (  1, 33, 11)  (  1, 35, 11)  (  1, 33, 13)  (  1, 32,  1)  (  1, 35,  7)
  0  0.1594E-02  0 -0.8705E-03  0  0.5930E-03  0  0.1910E-03  0  0.1463E-03
   (  1, 36, 11)  (  1, 36, 10)  (  1,  9,  4)  (  1, 25, 11)  (  1, 37, 10)
  0 -0.6697E-04  0 -0.2494E-04  0 -0.1200E-04  0  0.6031E-05  1  -1.261    
   (  1, 28,  8)  (  1, 35,  5)  (  1,  5,  6)  (  1, 27,  1)  (  1, 34, 12)
  0 -0.9923E-01  0  0.6890E-01  0  0.4550E-01  0  0.2924E-01  0  0.2514E-01
   (  1, 34, 12)  (  1,  9,  4)  (  1, 33, 12)  (  1,  7,  3)  (  1, 29,  7)
  0 -0.1841E-01  0  0.6908E-02  0 -0.2978E-02  0 -0.1903E-02  0 -0.1162E-02
   (  1, 35, 11)  (  1,  8,  5)  (  1,  7,  3)  (  1, 32, 14)  (  1, 36, 10)
  0 -0.3399E-03  0  0.3632E-03  0  0.1988E-03  0 -0.7110E-04  0 -0.3274E-04
   (  1, 27, 10)  (  1,  9,  4)  (  1, 26, 11)  (  1, 24, 10)  (  1, 36,  7)
  0  0.1364E-04  0 -0.8358E-05  1  -2.781      0 -0.1595      0 -0.1432    
   (  1, 26,  2)  (  1, 30,  6)  (  1, 34, 12)  (  1, 35, 10)  (  1,  9,  4)
  0  0.1014      0 -0.5455E-01  0  0.4867E-01  0 -0.3266E-01  0  0.1195E-01
   (  1, 33, 12)  (  1, 30,  7)  (  1, 29,  7)  (  1, 33, 11)  (  1,  8,  5)
  0 -0.6789E-02  0 -0.3370E-02  0 -0.1885E-02  0  0.6534E-03  0  0.4073E-03
   (  1,  7,  3)  (  1, 32, 14)  (  1, 36, 10)  (  1, 34, 11)  (  1,  9,  4)
  0  0.2699E-03  0 -0.1265E-03  0 -0.7115E-04  0 -0.2191E-04  0  0.8876E-05
   (  1, 37, 10)  (  1, 37,  9)  (  1, 26, 10)  (  1, 21, 11)  (  1, 34, 11)
  1   1.757      0  0.7931      0  0.5102      0  0.3608      0 -0.1836    
   (  1, 34, 11)  (  1, 33, 12)  (  1, 33, 12)  (  1, 35, 12)  (  1, 29,  1)
  0  0.1249      0 -0.7445E-01  0  0.2371E-01  0 -0.1877E-01  0  0.7094E-02
   (  1, 35, 10)  (  1, 29, 11)  (  1,  5,  1)  (  1,  8,  4)  (  1,  6,  2)
  0  0.4531E-02  0 -0.2577E-02  0  0.1521E-02  0  0.6826E-03  0 -0.4823E-03
   (  1, 33, 12)  (  1,  9,  4)  (  1, 26, 11)  (  1, 32,  1)  (  1, 38, 11)
  0 -0.1645E-03  0  0.8422E-04  0 -0.5333E-04  0  0.2652E-04  0  0.1014E-04
   (  1, 39, 14)  (  1, 30,  6)  (  1, 33,  8)  (  1, 38, 11)  (  1,  6,  6)
  0  0.1069E-04  0 -0.5042E-05  1  0.5442      0  0.1991      0  0.1148    
   (  1,  9,  3)  (  1, 29,  7)  (  1, 34, 11)  (  1, 33, 12)  (  1,  9,  4)
  0  0.9774E-01  0 -0.5595E-01  0  0.3352E-01  0 -0.1861E-01  0  0.7095E-02
   (  1, 35, 12)  (  1, 29,  1)  (  1, 34, 11)  (  1, 29, 11)  (  1, 27, 10)
  0  0.3694E-02  0 -0.2074E-02  0  0.1135E-02  0  0.5402E-03  0 -0.4984E-03
   (  1,  6,  2)  (  1, 36, 10)  (  1,  7,  3)  (  1, 26, 11)  (  1,  9,  4)
  0  0.2063E-03  0 -0.1546E-03  0 -0.5020E-04  0 -0.1966E-04  0 -0.9411E-05
   (  1, 32,  1)  (  1, 37, 11)  (  1, 39, 14)  (  1, 39, 14)  (  1, 32,  7)
  1  0.1512      0 -0.5321E-01  0  0.3184E-01  0  0.2772E-01  0 -0.1490E-01
   (  1, 33, 12)  (  1,  9,  4)  (  1,  9,  4)  (  1, 35, 12)  (  1, 28,  1)
  0 -0.9626E-02  0  0.5040E-02  0 -0.2133E-02  0  0.1469E-02  0 -0.8193E-03
   (  1, 32,  1)  (  1, 33, 12)  (  1,  8,  5)  (  1,  6,  2)  (  1, 36, 10)
  0  0.3040E-03  0  0.2296E-03  0 -0.1533E-03  0  0.5456E-04  0 -0.3742E-04
   (  1, 39, 13)  (  1,  9,  4)  (  1,  9,  4)  (  1, 35, 10)  (  1, 37, 11)
  0  0.1410E-04  0 -0.5755E-05  1  0.4404E-01  0 -0.1686E-01  0  0.8704E-02
   (  1, 34, 11)  (  1, 39, 14)  (  1, 33, 12)  (  1,  9,  4)  (  1, 35, 12)
  0  0.7342E-02  0 -0.4689E-02  0  0.1791E-02  0  0.1492E-02  0 -0.5731E-03
   (  1, 35, 12)  (  1, 31,  1)  (  1, 35, 10)  (  1, 33, 12)  (  1,  8,  5)
  0  0.4485E-03  0 -0.2074E-03  0  0.9976E-04  0 -0.3305E-04  0  0.2690E-04
   (  1,  7,  3)  (  1, 36, 10)  (  1, 39, 13)  (  1, 33,  8)  (  1,  9,  4)
  0 -0.1957E-04  0 -0.8544E-05  1  0.1227E-01  0 -0.5076E-02  0  0.2821E-02
   (  1,  9,  4)  (  1, 38, 11)  (  1, 33, 12)  (  1,  9,  4)  (  1, 35, 12)
  0 -0.2241E-02  0 -0.9147E-03  0 -0.9802E-03  0  0.4230E-03  0 -0.1612E-03
   (  1, 32,  9)  (  1, 32,  1)  (  1, 33,  8)  (  1, 33, 12)  (  1, 39, 12)
  0  0.1243E-03  0 -0.4409E-04  0  0.2421E-04  0 -0.1183E-04  0  0.8748E-05
   (  1,  7,  3)  (  1, 37, 12)  (  1, 39, 14)  (  1,  9,  4)  (  1,  9,  4)
  1  0.3464E-02  0 -0.1471E-02  0  0.8376E-03  0 -0.7017E-03  0  0.3001E-03
   (  1, 33, 12)  (  1,  9,  4)  (  1, 35, 12)  (  1, 32,  9)  (  1, 30,  7)
  0 -0.3665E-03  0  0.1007E-03  0 -0.5153E-04  0  0.3672E-04  0  0.1056E-04
   (  1, 33,  8)  (  1, 33, 12)  (  1, 38, 12)  (  1,  7,  3)  (  1, 28,  3)
  0  0.6374E-05  1  0.9986E-03  0 -0.4145E-03  0  0.2311E-03  0 -0.2040E-03
   (  1,  9,  4)  (  1, 33, 12)  (  1,  9,  4)  (  1, 35, 12)  (  1, 32,  9)
  0  0.1023E-03  0 -0.1124E-03  0  0.3128E-04  0 -0.1619E-04  0  0.1082E-04
   (  1, 30,  7)  (  1, 33,  8)  (  1, 35, 10)  (  1,  8,  5)  (  1,  7,  3)
  0  0.4031E-05  1  0.2913E-03  0 -0.1092E-03  0  0.7777E-04  0 -0.5596E-04
   (  1, 29, 11)  (  1, 33, 12)  (  1,  9,  4)  (  1,  9,  4)  (  1, 32,  9)
  0  0.3257E-04  0 -0.3479E-04  0  0.1038E-04  0 -0.5295E-05  1  0.8436E-04
   (  1, 30,  7)  (  1, 33, 10)  (  1, 34, 11)  (  1,  6,  2)  (  1, 33, 12)
  0  0.2879E-04  0  0.2383E-04  0 -0.1507E-04  0  0.1051E-04  0 -0.1131E-04
   (  1, 34, 13)  (  1,  9,  4)  (  1, 32, 11)  (  1, 30,  7)  (  1, 33, 10)
  0  0.3364E-05  1  0.2304E-04  0  0.9929E-05  1 -0.4537E-05
   (  1, 34, 11)  (  1, 33, 12)  (  1, 35, 12)  (  1, 30,  6)

 MAXIMUM RESIDUAL FOR EACH ITERATION (1 INDICATES THE FIRST INNER ITERATION):

    RESIDUAL       RESIDUAL       RESIDUAL       RESIDUAL       RESIDUAL    
   LAYER,ROW,COL  LAYER,ROW,COL  LAYER,ROW,COL  LAYER,ROW,COL  LAYER,ROW,COL
 ---------------------------------------------------------------------------
  1   70.86      0   17.99      0   17.70      0   14.72      0   11.87    
   (  1,  8,  5)  (  1, 37,  6)  (  1, 39,  6)  (  1,  1, 10)  (  1,  1, 13)
  0   9.873      0   7.370      0   4.967      0   2.548      0   1.324    
   (  1,  2, 15)  (  1,  1, 15)  (  1,  1, 15)  (  1,  1, 15)  (  1,  1, 15)
  0  0.5649      0  0.4709      0  0.1950      0  0.9213E-01  0  0.4982E-01
   (  1,  1, 15)  (  1,  1, 15)  (  1,  1, 15)  (  1,  1, 15)  (  1,  1, 15)
  0  0.2553E-01  0  0.1180E-01  0  0.5691E-02  0  0.4203E-02  0  0.2398E-02
   (  1,  1, 15)  (  1,  1, 15)  (  1,  1, 15)  (  1,  1, 15)  (  1,  1, 15)
  0  0.2052E-02  0  0.1293E-02  1   23.88      0   11.74      0   8.741    
   (  1,  1, 15)  (  1,  1, 15)  (  1, 34, 12)  (  1, 34, 12)  (  1, 34, 12)
  0   5.559      0   4.049      0   2.494      0   1.216      0  0.7232    
   (  1, 35, 11)  (  1, 35, 11)  (  1, 35, 11)  (  1,  1, 15)  (  1,  1, 15)
  0  0.3736      0  0.1937      0  0.8289E-01  0  0.4891E-01  0  0.4344E-01
   (  1,  1, 15)  (  1, 32, 14)  (  1, 19, 15)  (  1, 31, 15)  (  1, 31, 15)
  0  0.2461E-01  0  0.1318E-01  0  0.6875E-02  0  0.3585E-02  0  0.2139E-02
   (  1, 31, 15)  (  1, 31, 15)  (  1, 31, 15)  (  1, 31, 15)  (  1, 31, 15)
  0  0.1423E-02  1   19.93      0   11.37      0   9.097      0   6.584    
   (  1, 31, 15)  (  1, 34, 12)  (  1, 34, 12)  (  1, 35, 11)  (  1, 35, 11)
  0   4.274      0   2.190      0   1.088      0  0.6266      0  0.3963    
   (  1, 35, 11)  (  1, 35, 11)  (  1, 35, 11)  (  1, 32, 14)  (  1, 32, 14)
  0  0.1580      0  0.6473E-01  0 -0.5402E-01  0  0.3029E-01  0  0.1769E-01
   (  1, 32, 14)  (  1, 32, 14)  (  1, 31, 14)  (  1, 31, 15)  (  1, 31, 15)
  0  0.1099E-01  0  0.6284E-02  0  0.3420E-02  0  0.1790E-02  1  -14.34    
   (  1, 31, 15)  (  1, 31, 15)  (  1, 31, 15)  (  1, 31, 15)  (  1, 33, 12)
  0   12.37      0   10.74      0   7.785      0   4.424      0   2.291    
   (  1, 35, 11)  (  1, 35, 11)  (  1, 35, 11)  (  1, 35, 11)  (  1, 35, 11)
  0  -1.237      0  0.7855      0  0.5427      0  0.2202      0 -0.7878E-01
   (  1, 32, 13)  (  1, 32, 14)  (  1, 32, 14)  (  1, 32, 14)  (  1, 31, 14)
  0 -0.4661E-01  0  0.3973E-01  0  0.2088E-01  0  0.1225E-01  0  0.6933E-02
   (  1, 31, 14)  (  1, 37,  9)  (  1, 31, 15)  (  1, 31, 15)  (  1, 31, 15)
  0  0.3732E-02  0  0.2599E-02  1  -24.27      0   21.62      0   18.52    
   (  1, 31, 15)  (  1, 31, 15)  (  1, 33, 12)  (  1, 35, 11)  (  1, 35, 11)
  0   13.31      0   7.365      0   3.957      0  -2.118      0   1.400    
   (  1, 35, 11)  (  1, 35, 11)  (  1, 35, 11)  (  1, 32, 13)  (  1, 32, 14)
  0  0.9480      0  0.3720      0 -0.1427      0  0.6754E-01  0  0.5907E-01
   (  1, 32, 14)  (  1, 32, 14)  (  1, 31, 14)  (  1, 37,  9)  (  1, 37,  9)
  0  0.3535E-01  0  0.1981E-01  0  0.1164E-01  0  0.6140E-02  0  0.3169E-02
   (  1, 37,  9)  (  1, 31, 15)  (  1, 31, 15)  (  1, 31, 15)  (  1, 31, 15)
  1  -60.51      0  -40.03      0  -27.77      0  -16.11      0  -11.11    
   (  1, 34, 11)  (  1, 35, 12)  (  1, 35, 12)  (  1, 34, 11)  (  1, 33, 15)
  0  -6.943      0  -3.759      0  -2.391      0  -1.434      0 -0.8070    
   (  1, 33, 15)  (  1, 31, 15)  (  1, 31, 15)  (  1, 31, 15)  (  1, 31, 15)
  0 -0.3849      0 -0.3117      0 -0.1603      0 -0.9122E-01  0 -0.4785E-01
   (  1, 31, 15)  (  1, 31, 15)  (  1, 30, 15)  (  1, 32, 15)  (  1, 32, 15)
  0 -0.2465E-01  0 -0.1612E-01  0 -0.1158E-01  0 -0.5595E-02  0 -0.3400E-02
   (  1, 30, 15)  (  1, 30, 15)  (  1, 30, 15)  (  1, 30, 15)  (  1, 30, 15)
  0 -0.2632E-02  0 -0.1872E-02  1  -19.13      0  -12.28      0  -9.538    
   (  1, 30, 15)  (  1, 30, 15)  (  1, 34, 11)  (  1, 34, 11)  (  1, 34, 11)
  0  -4.993      0  -3.874      0  -2.306      0  -1.194      0 -0.6915    
   (  1, 34, 11)  (  1, 33, 15)  (  1, 33, 15)  (  1, 31, 15)  (  1, 31, 15)
  0 -0.4083      0 -0.2364      0 -0.1174      0 -0.6443E-01  0 -0.5337E-01
   (  1, 31, 15)  (  1, 31, 15)  (  1, 31, 15)  (  1, 32, 15)  (  1, 32, 15)
  0 -0.2896E-01  0 -0.1513E-01  0 -0.7469E-02  0 -0.3951E-02  0 -0.2394E-02
   (  1, 32, 15)  (  1, 32, 15)  (  1, 32, 15)  (  1, 30, 15)  (  1, 30, 15)
  1  -5.816      0  -3.904      0  -2.911      0  -1.582      0  -1.274    
   (  1, 34, 11)  (  1, 34, 11)  (  1, 34, 11)  (  1, 33, 15)  (  1, 33, 15)
  0 -0.7464      0 -0.3998      0 -0.2185      0 -0.1376      0 -0.7447E-01
   (  1, 33, 15)  (  1, 33, 15)  (  1, 31, 15)  (  1, 31, 15)  (  1, 31, 15)
  0 -0.3670E-01  0 -0.2800E-01  0 -0.1745E-01  0 -0.8748E-02  0 -0.4452E-02
   (  1, 31, 15)  (  1, 32, 15)  (  1, 32, 15)  (  1, 32, 15)  (  1, 32, 15)
  0 -0.2243E-02  0 -0.1187E-02  1  -1.842      0  -1.269      0 -0.8671    
   (  1, 32, 15)  (  1, 32, 15)  (  1, 34, 11)  (  1, 34, 11)  (  1, 34, 11)
  0 -0.5179      0 -0.3349      0 -0.2307      0 -0.1320      0 -0.6320E-01
   (  1, 33, 15)  (  1, 33, 15)  (  1, 33, 15)  (  1, 33, 15)  (  1, 31, 15)
  0 -0.4136E-01  0 -0.2157E-01  0 -0.9372E-02  0 -0.5730E-02  0 -0.4745E-02
   (  1, 31, 15)  (  1, 31, 15)  (  1, 32, 15)  (  1, 32, 15)  (  1, 32, 15)
  0 -0.2670E-02  0 -0.1305E-02  1 -0.5869      0 -0.4051      0 -0.2603    
   (  1, 32, 15)  (  1, 32, 15)  (  1, 34, 11)  (  1, 34, 11)  (  1, 34, 11)
  0 -0.1703      0 -0.1183      0 -0.7585E-01  0 -0.4315E-01  0 -0.2034E-01
   (  1, 33, 15)  (  1, 33, 15)  (  1, 33, 15)  (  1, 33, 15)  (  1, 33, 15)
  0 -0.1208E-01  0 -0.6454E-02  0 -0.2856E-02  0 -0.1829E-02  0 -0.1525E-02
   (  1, 31, 15)  (  1, 31, 15)  (  1, 32, 15)  (  1, 32, 15)  (  1, 32, 15)
  1 -0.1824      0 -0.1262      0 -0.7912E-01  0 -0.5584E-01  0 -0.4382E-01
   (  1, 34, 11)  (  1, 34, 11)  (  1, 34, 11)  (  1, 33, 15)  (  1, 33, 15)
  0 -0.2456E-01  0 -0.1425E-01  0 -0.6928E-02  0 -0.3875E-02  0 -0.1984E-02
   (  1, 33, 15)  (  1, 33, 15)  (  1, 33, 15)  (  1, 33, 15)  (  1, 32, 15)
  0 -0.9894E-03  1 -0.5548E-01  0 -0.3837E-01  0 -0.2413E-01  0 -0.1816E-01
   (  1, 32, 15)  (  1, 34, 11)  (  1, 34, 11)  (  1, 34, 11)  (  1, 33, 15)
  0 -0.1447E-01  0 -0.7955E-02  0 -0.4729E-02  0 -0.2329E-02  0 -0.1241E-02
   (  1, 33, 15)  (  1, 33, 15)  (  1, 33, 15)  (  1, 33, 15)  (  1, 33, 15)
  0 -0.6249E-03  1 -0.1665E-01  0 -0.1124E-01  0 -0.7460E-02  0 -0.5923E-02
   (  1, 32, 15)  (  1, 34, 11)  (  1, 34, 11)  (  1, 33, 15)  (  1, 33, 15)
  0 -0.4681E-02  0 -0.2628E-02  0 -0.1549E-02  0 -0.7590E-03  1 -0.5096E-02
   (  1, 33, 15)  (  1, 33, 15)  (  1, 33, 15)  (  1, 33, 15)  (  1, 34, 11)
  0 -0.3241E-02  0 -0.2557E-02  0 -0.2007E-02  0 -0.1529E-02  0 -0.8699E-03
   (  1, 34, 11)  (  1, 33, 15)  (  1, 33, 15)  (  1, 33, 15)  (  1, 33, 15)
  0 -0.4922E-03  1 -0.1584E-02  0 -0.9905E-03  1 -0.1080E-02
   (  1, 33, 15)  (  1, 34, 11)  (  1, 33, 15)  (  1, 34, 11)



 OUTPUT CONTROL FOR STRESS PERIOD    3   TIME STEP    1
    SAVE HEAD FOR ALL LAYERS
    SAVE BUDGET
 UBDSV2 SAVING "   CONSTANT HEAD" ON UNIT  53 AT TIME STEP  1, STRESS PERIOD   3
 UBDSV1 SAVING "FLOW RIGHT FACE " ON UNIT  53 AT TIME STEP  1, STRESS PERIOD   3
 UBDSV1 SAVING "FLOW FRONT FACE " ON UNIT  53 AT TIME STEP  1, STRESS PERIOD   3

 HEAD WILL BE SAVED ON UNIT   51 AT END OF TIME STEP    1, STRESS PERIOD    3
1
  VOLUMETRIC BUDGET FOR ENTIRE MODEL AT END OF TIME STEP    1, STRESS PERIOD   3
  ------------------------------------------------------------------------------

     CUMULATIVE VOLUMES      L**3       RATES FOR THIS TIME STEP      L**3/T
     ------------------                 ------------------------

           IN:                                      IN:
           ---                                      ---
             STORAGE =     2765482.2500               STORAGE =           0.0000
       CONSTANT HEAD =           0.0000         CONSTANT HEAD =           0.0000
               WELLS =           0.0000                 WELLS =           0.0000
       RIVER LEAKAGE =      962149.7500         RIVER LEAKAGE =         683.6514
            RECHARGE =     7144518.0000              RECHARGE =        3903.7500

            TOTAL IN =    10872150.0000              TOTAL IN =        4587.4014

          OUT:                                     OUT:
          ----                                     ----
             STORAGE =           0.0000               STORAGE =           0.0000
       CONSTANT HEAD =      653981.6250         CONSTANT HEAD =         280.8217
               WELLS =     4349877.0000                 WELLS =        1917.0000
       RIVER LEAKAGE =     5868390.0000         RIVER LEAKAGE =        2389.5732
            RECHARGE =           0.0000              RECHARGE =           0.0000

           TOTAL OUT =    10872248.0000             TOTAL OUT =        4587.3950

            IN - OUT =         -98.0000              IN - OUT =       6.3477E-03

 PERCENT DISCREPANCY =          -0.00     PERCENT DISCREPANCY =           0.00






         TIME SUMMARY AT END OF TIME STEP    1 IN STRESS PERIOD    3
                    SECONDS     MINUTES      HOURS       DAYS        YEARS
                    -----------------------------------------------------------
   TIME STEP LENGTH  86400.      1440.0      24.000      1.0000     2.73785E-03
 STRESS PERIOD TIME  86400.      1440.0      24.000      1.0000     2.73785E-03
         TOTAL TIME 1.57853E+08 2.63088E+06  43848.      1827.0      5.0021    
1

 Run end date and time (yyyy/mm/dd hh:mm:ss): 2016/07/05 15:50:11
 Elapsed run time:  0.051 Seconds

