                                  MODFLOW-NWT-SWR1 
      U.S. GEOLOGICAL SURVEY MODULAR FINITE-DIFFERENCE GROUNDWATER-FLOW MODEL
                            VERSION 1.0.9 07/01/2014
                    BASED ON MODFLOW-2005 VERSION 1.11.00 08/30/2013

 LIST FILE: freyberg.list
                         UNIT    2

 OPENING freyberg.dis
 FILE TYPE:DIS   UNIT   11   STATUS:OLD    
 FORMAT:FORMATTED              ACCESS:SEQUENTIAL          

 OPENING freyberg.upw
 FILE TYPE:UPW   UNIT   31   STATUS:OLD    
 FORMAT:FORMATTED              ACCESS:SEQUENTIAL          

 OPENING freyberg.bas
 FILE TYPE:BAS6   UNIT   13   STATUS:OLD    
 FORMAT:FORMATTED              ACCESS:SEQUENTIAL          

 OPENING freyberg.rch
 FILE TYPE:RCH   UNIT   19   STATUS:OLD    
 FORMAT:FORMATTED              ACCESS:SEQUENTIAL          

 OPENING freyberg.wel
 FILE TYPE:WEL   UNIT   20   STATUS:OLD    
 FORMAT:FORMATTED              ACCESS:SEQUENTIAL          

 OPENING freyberg.riv
 FILE TYPE:RIV   UNIT   18   STATUS:OLD    
 FORMAT:FORMATTED              ACCESS:SEQUENTIAL          

 OPENING freyberg.oc
 FILE TYPE:OC   UNIT   14   STATUS:OLD    
 FORMAT:FORMATTED              ACCESS:SEQUENTIAL          

 OPENING freyberg.hds
 FILE TYPE:DATA(BINARY)   UNIT   51   STATUS:REPLACE
 FORMAT:BINARY                 ACCESS:SEQUENTIAL          

 OPENING freyberg.ddn
 FILE TYPE:DATA(BINARY)   UNIT   52   STATUS:REPLACE
 FORMAT:BINARY                 ACCESS:SEQUENTIAL          

 OPENING freyberg.cbc
 FILE TYPE:DATA(BINARY)   UNIT   53   STATUS:REPLACE
 FORMAT:BINARY                 ACCESS:SEQUENTIAL          

 OPENING freyberg.nwt
 FILE TYPE:NWT   UNIT   32   STATUS:OLD    
 FORMAT:FORMATTED              ACCESS:SEQUENTIAL          

 BAS -- BASIC PACKAGE, VERSION 7, 5/2/2005 INPUT READ FROM UNIT   13
 
 MODFLOW was compiled using mixed precision
 Precision of REAL variables:           6
 Precision of DOUBLE PRECISION variables:          15

 DISCRETIZATION INPUT DATA READ FROM UNIT   11
 # Discretization file for MODFLOW, generated by Flopy.
    1 LAYERS        40 ROWS        20 COLUMNS
    3 STRESS PERIOD(S) IN SIMULATION
 MODEL TIME UNIT IS DAYS
 MODEL LENGTH UNIT IS METERS
  Confining bed flag for each layer:
   0



                               DELR
 READING ON UNIT   11 WITH FORMAT: (20G15.6)           



                               DELC
 READING ON UNIT   11 WITH FORMAT: (40G15.6)           

 TOP ELEVATION OF LAYER 1 =   35.0000    

 OPENING FILE ON UNIT   99:
 ref\botm.ref                                                                                                                                                                                            



             MODEL LAYER BOTTOM EL. FOR LAYER   1
 READING ON UNIT   99 WITH FORMAT: (10E12.4)           


 STRESS PERIOD     LENGTH       TIME STEPS     MULTIPLIER FOR DELT    SS FLAG
 ----------------------------------------------------------------------------
        1        1.0000000          1                    1.000         SS
        2         1825.000          1                    1.000         TR
        3        1.0000000          1                    1.000         SS

 COMBINED STEADY-STATE AND TRANSIENT SIMULATION



 
 # Basic package file for MODFLOW, generated by Flopy.                           
 THE FREE FORMAT OPTION HAS BEEN SELECTED

 OPENING FILE ON UNIT   99:
 ref\ibound.ref                                                                                                                                                                                          



                     BOUNDARY ARRAY FOR LAYER   1
 READING ON UNIT   99 WITH FORMAT: (25I3)              

 AQUIFER HEAD WILL BE SET TO  -999.99     AT ALL NO-FLOW NODES (IBOUND=0).

 OPENING FILE ON UNIT   99:
 ref\strt.ref                                                                                                                                                                                            



                       INITIAL HEAD FOR LAYER   1
 READING ON UNIT   99 WITH FORMAT: (10E12.4)           
 # Output control package file for MODFLOW, generated by Flopy.

 OUTPUT CONTROL IS SPECIFIED ONLY AT TIME STEPS FOR WHICH OUTPUT IS DESIRED
 COMPACT CELL-BY-CELL BUDGET FILES WILL BE WRITTEN
 AUXILIARY DATA WILL BE SAVED IN CELL-BY-CELL BUDGET FILES
 HEAD PRINT FORMAT CODE IS   0    DRAWDOWN PRINT FORMAT CODE IS   0
 HEADS WILL BE SAVED ON UNIT   51    DRAWDOWNS WILL BE SAVED ON UNIT   52
 # NWT for MODFLOW-NWT, generated by Flopy.

 NWT1 -- Newton Solver, VERSION 1.0.9, 07/01/2014
         INPUT READ FROM UNIT 32

 COMPLEX OPTION:
 DEFAULT SOLVER INPUT VALUES REFLECT STRONGLY NONLINEAR MODEL
 ***GMRES linear solver will be used***
 
   CONVERGENCE CRITERION OF   0.100000E-03 FOR HEAD SOLUTION
   AND A TOLERANCE OF   0.500000E+03 FOR FLOW SOLUTION AND 
   A MAXIMUM OF   100 OUTER ITERATIONS. 


   D-B-D REDUCTION FACTOR OF    0.850000E+00 AND 
   A D-B-D INCREASE FACTOR OF    0.100000E-04 AND 
   A D-B-D RELAXATION OF    0.000000E+00 AND 
   A MOMENTUM FACTOR OF    0.100000E+00 .


   BACKTRACKING IS ACTIVE 
   THE MAXIMUM NUMBER OF BACKTRACKS IS    50 AND 
   THE BACKTRACKING TOLERANCE IS    0.110000E+01 AND
   THE BACKTRACKING REDUCTION FACTOR IS    0.700000E+00

 GMRES -- LINEAR SOLUTION BY GMRES PACKAGE 
     adapted for HYDROTHERM by Kipp and others (2008)
     using software originally developed by Saad (1990) 32
     using algorithms described in Saad (2003)

 UPW1 -- UPSTREAM WEIGHTING FLOW PACKAGE, VERSION 1.0.6, 12/05/2012
         INPUT READ FROM UNIT 31

 # UPW for MODFLOW-NWT, generated by Flopy.
 CELL-BY-CELL FLOWS WILL BE SAVED ON UNIT   53
 No named parameters

   LAYER FLAGS:
 LAYER       LAYTYP          LAYAVG    CHANI           LAYVKA           LAYWET
 ---------------------------------------------------------------------------
    1             1             0     1.000E+00             0             0

   INTERPRETATION OF LAYER FLAGS:
                        INTERBLOCK     HORIZONTAL    DATA IN
         LAYER TYPE   TRANSMISSIVITY   ANISOTROPY   ARRAY VKA   WETTABILITY
 LAYER   (LAYTYP)        (LAYAVG)      (CHANI)     (LAYVKA)       (LAYWET)
 ---------------------------------------------------------------------------
    1   CONVERTIBLE      HARMONIC     1.000E+00    VERTICAL K  NON-WETTABLE

 OPENING FILE ON UNIT   99:
 ref\hk_Layer_1.ref                                                                                                                                                                                      



              HYD. COND. ALONG ROWS FOR LAYER   1
 READING ON UNIT   99 WITH FORMAT: (20G15.6)           

      VERTICAL HYD. COND. =  1.000000     FOR LAYER   1

 OPENING FILE ON UNIT   99:
 ref\ss_Layer_1.ref                                                                                                                                                                                      



                   SPECIFIC STORAGE FOR LAYER   1
 READING ON UNIT   99 WITH FORMAT: (20G15.6)           

           SPECIFIC YIELD =  9.999999E-03 FOR LAYER   1

 WEL -- WELL PACKAGE, VERSION 1.0.6, 12/05/2012 INPUT READ FROM UNIT   20
 # Well file for MODFLOW, generated by Flopy.
 No named parameters
 MAXIMUM OF      6 ACTIVE WELLS AT ONE TIME
 No named parameters
  PHIRAMP WILL BE SET TO A DEFAULT VALUE OF 0.05
  WELLS WITH REDUCED PUMPING WILL BE REPORTED TO THE MAIN LISTING FILE


     0 Well parameters

 RIV -- RIVER PACKAGE, VERSION 7, 5/2/2005 INPUT READ FROM UNIT   18
 # RIV for MODFLOW, generated by Flopy.
 No named parameters
 MAXIMUM OF     40 ACTIVE RIVER REACHES AT ONE TIME


     0 River parameters

 RCH -- RECHARGE PACKAGE, VERSION 7, 5/2/2005 INPUT READ FROM UNIT   19
 # RCH for MODFLOW, generated by Flopy.
 No named parameters
 OPTION 3 -- RECHARGE TO HIGHEST ACTIVE NODE IN EACH VERTICAL COLUMN


     0 Recharge parameters
1
                            STRESS PERIOD NO.    1, LENGTH =  1.0000000    
                            -----------------------------------------------

                              NUMBER OF TIME STEPS =     1

                               MULTIPLIER FOR DELT =     1.000

                            INITIAL TIME STEP SIZE =  1.0000000    

 WELL NO.  LAYER   ROW   COL   STRESS RATE         
 --------------------------------------------------
      1      1      9     16       708.5    
      2      1     11     13       354.2    
      3      1     20     14       337.0    
      4      1     26     10       71.71    
      5      1     29      6       62.21    
      6      1     34     12       371.5    

      6 WELLS

 REACH NO.  LAYER   ROW   COL     STAGE      CONDUCTANCE     BOTTOM EL.         
 -------------------------------------------------------------------------------
      1      1      1     15       20.10           4904.           20.00    
      2      1      2     15       19.87           4904.           19.75    
      3      1      3     15       19.65           4904.           19.50    
      4      1      4     15       19.42           4904.           19.25    
      5      1      5     15       19.19           4904.           19.00    
      6      1      6     15       18.97           4904.           18.75    
      7      1      7     15       18.74           4904.           18.50    
      8      1      8     15       18.51           4904.           18.25    
      9      1      9     15       18.28           4904.           18.00    
     10      1     10     15       19.06           4904.           17.75    
     11      1     11     15       17.83           4904.           17.50    
     12      1     12     15       17.60           4904.           17.25    
     13      1     13     15       17.38           4904.           17.00    
     14      1     14     15       17.15           4904.           16.75    
     15      1     15     15       16.92           4904.           16.50    
     16      1     16     15       16.70           4904.           16.25    
     17      1     17     15       16.47           4904.           16.00    
     18      1     18     15       16.24           4904.           15.75    
     19      1     19     15       16.02           4904.           15.50    
     20      1     20     15       15.79           4904.           15.25    
     21      1     21     15       15.56           4904.           15.00    
     22      1     22     15       15.33           4904.           14.75    
     23      1     23     15       15.11           4904.           14.50    
     24      1     24     15       14.88           4904.           14.25    
     25      1     25     15       14.65           4904.           14.00    
     26      1     26     15       14.43           4904.           13.75    
     27      1     27     15       14.20           4904.           13.50    
     28      1     28     15       13.97           4904.           13.25    
     29      1     29     15       13.75           4904.           13.00    
     30      1     30     15       13.52           4904.           12.75    
     31      1     31     15       13.29           4904.           12.50    
     32      1     32     15       13.07           4904.           12.25    
     33      1     33     15       12.84           4904.           12.00    
     34      1     34     15       12.61           4904.           11.75    
     35      1     35     15       12.38           4904.           11.50    
     36      1     36     15       12.16           4904.           11.25    
     37      1     37     15       11.93           4904.           11.00    
     38      1     38     15       11.70           4904.           10.75    
     39      1     39     15       11.48           4904.           10.50    
     40      1     40     15       11.25           4904.           10.25    

     40 RIVER REACHES

 OPENING FILE ON UNIT   99:
 ref\rech_0.ref                                                                                                                                                                                          



                           RECHARGE
 READING ON UNIT   99 WITH FORMAT: (20G15.6)           
 
 SOLVING FOR HEAD 

    ------------------------------------------------
       NWT REQUIRED           11 OUTER ITERATIONS 
       AND A TOTAL OF        214 INNER ITERATIONS.
    ------------------------------------------------

 OUTPUT CONTROL FOR STRESS PERIOD    1   TIME STEP    1
    SAVE HEAD FOR ALL LAYERS
    SAVE BUDGET
 UBDSV2 SAVING "   CONSTANT HEAD" ON UNIT  53 AT TIME STEP  1, STRESS PERIOD   1
 UBDSV1 SAVING "FLOW RIGHT FACE " ON UNIT  53 AT TIME STEP  1, STRESS PERIOD   1
 UBDSV1 SAVING "FLOW FRONT FACE " ON UNIT  53 AT TIME STEP  1, STRESS PERIOD   1

 HEAD WILL BE SAVED ON UNIT   51 AT END OF TIME STEP    1, STRESS PERIOD    1
1
  VOLUMETRIC BUDGET FOR ENTIRE MODEL AT END OF TIME STEP    1, STRESS PERIOD   1
  ------------------------------------------------------------------------------

     CUMULATIVE VOLUMES      L**3       RATES FOR THIS TIME STEP      L**3/T
     ------------------                 ------------------------

           IN:                                      IN:
           ---                                      ---
             STORAGE =           0.0000               STORAGE =           0.0000
       CONSTANT HEAD =           0.0000         CONSTANT HEAD =           0.0000
               WELLS =        1905.1200                 WELLS =        1905.1200
       RIVER LEAKAGE =           0.0000         RIVER LEAKAGE =           0.0000
            RECHARGE =        6004.7998              RECHARGE =        6004.7998

            TOTAL IN =        7909.9199              TOTAL IN =        7909.9199

          OUT:                                     OUT:
          ----                                     ----
             STORAGE =           0.0000               STORAGE =           0.0000
       CONSTANT HEAD =         510.9036         CONSTANT HEAD =         510.9036
               WELLS =           0.0000                 WELLS =           0.0000
       RIVER LEAKAGE =        7399.2051         RIVER LEAKAGE =        7399.2051
            RECHARGE =           0.0000              RECHARGE =           0.0000

           TOTAL OUT =        7910.1084             TOTAL OUT =        7910.1084

            IN - OUT =          -0.1885              IN - OUT =          -0.1885

 PERCENT DISCREPANCY =          -0.00     PERCENT DISCREPANCY =          -0.00






         TIME SUMMARY AT END OF TIME STEP    1 IN STRESS PERIOD    1
                    SECONDS     MINUTES      HOURS       DAYS        YEARS
                    -----------------------------------------------------------
   TIME STEP LENGTH  86400.      1440.0      24.000     1.00000     2.73785E-03
 STRESS PERIOD TIME  86400.      1440.0      24.000     1.00000     2.73785E-03
         TOTAL TIME  86400.      1440.0      24.000     1.00000     2.73785E-03
1
1
                            STRESS PERIOD NO.    2, LENGTH =   1825.000    
                            -----------------------------------------------

                              NUMBER OF TIME STEPS =     1

                               MULTIPLIER FOR DELT =     1.000

                            INITIAL TIME STEP SIZE =   1825.000    

 WELL NO.  LAYER   ROW   COL   STRESS RATE         
 --------------------------------------------------
      1      1      9     16       885.6    
      2      1     11     13       442.8    
      3      1     20     14       421.2    
      4      1     26     10       89.64    
      5      1     29      6       77.76    
      6      1     34     12       464.4    

      6 WELLS

 REUSING NON-PARAMETER RIVER REACHES FROM LAST STRESS PERIOD

     40 RIVER REACHES

 OPENING FILE ON UNIT   99:
 ref\rech_1.ref                                                                                                                                                                                          



                           RECHARGE
 READING ON UNIT   99 WITH FORMAT: (20G15.6)           
 
 SOLVING FOR HEAD 

    ------------------------------------------------
       NWT REQUIRED            5 OUTER ITERATIONS 
       AND A TOTAL OF         47 INNER ITERATIONS.
    ------------------------------------------------

 OUTPUT CONTROL FOR STRESS PERIOD    2   TIME STEP    1
    SAVE HEAD FOR ALL LAYERS
    SAVE BUDGET
 UBDSV1 SAVING "         STORAGE" ON UNIT  53 AT TIME STEP  1, STRESS PERIOD   2
 UBDSV2 SAVING "   CONSTANT HEAD" ON UNIT  53 AT TIME STEP  1, STRESS PERIOD   2
 UBDSV1 SAVING "FLOW RIGHT FACE " ON UNIT  53 AT TIME STEP  1, STRESS PERIOD   2
 UBDSV1 SAVING "FLOW FRONT FACE " ON UNIT  53 AT TIME STEP  1, STRESS PERIOD   2

 HEAD WILL BE SAVED ON UNIT   51 AT END OF TIME STEP    1, STRESS PERIOD    2
1
  VOLUMETRIC BUDGET FOR ENTIRE MODEL AT END OF TIME STEP    1, STRESS PERIOD   2
  ------------------------------------------------------------------------------

     CUMULATIVE VOLUMES      L**3       RATES FOR THIS TIME STEP      L**3/T
     ------------------                 ------------------------

           IN:                                      IN:
           ---                                      ---
             STORAGE =      583989.1250               STORAGE =         319.9940
       CONSTANT HEAD =           0.0000         CONSTANT HEAD =           0.0000
               WELLS =     4347960.0000                 WELLS =        2381.3999
       RIVER LEAKAGE =       44021.8203         RIVER LEAKAGE =          24.1215
            RECHARGE =     5485385.0000              RECHARGE =        3002.3999

            TOTAL IN =    10461356.0000              TOTAL IN =        5727.9155

          OUT:                                     OUT:
          ----                                     ----
             STORAGE =         257.9894               STORAGE =           0.1414
       CONSTANT HEAD =      532292.0000         CONSTANT HEAD =         291.3869
               WELLS =           0.0000                 WELLS =           0.0000
       RIVER LEAKAGE =     9928769.0000         RIVER LEAKAGE =        5436.3672
            RECHARGE =           0.0000              RECHARGE =           0.0000

           TOTAL OUT =    10461319.0000             TOTAL OUT =        5727.8955

            IN - OUT =          37.0000              IN - OUT =       2.0020E-02

 PERCENT DISCREPANCY =           0.00     PERCENT DISCREPANCY =           0.00






         TIME SUMMARY AT END OF TIME STEP    1 IN STRESS PERIOD    2
                    SECONDS     MINUTES      HOURS       DAYS        YEARS
                    -----------------------------------------------------------
   TIME STEP LENGTH 1.57680E+08 2.62800E+06  43800.      1825.0      4.9966    
 STRESS PERIOD TIME 1.57680E+08 2.62800E+06  43800.      1825.0      4.9966    
         TOTAL TIME 1.57766E+08 2.62944E+06  43824.      1826.0      4.9993    
1
1
                            STRESS PERIOD NO.    3, LENGTH =  1.0000000    
                            -----------------------------------------------

                              NUMBER OF TIME STEPS =     1

                               MULTIPLIER FOR DELT =     1.000

                            INITIAL TIME STEP SIZE =  1.0000000    

 WELL NO.  LAYER   ROW   COL   STRESS RATE         
 --------------------------------------------------
      1      1      9     16       885.6    
      2      1     11     13       442.8    
      3      1     20     14       421.2    
      4      1     26     10       89.64    
      5      1     29      6       77.76    
      6      1     34     12       464.4    

      6 WELLS

 REUSING NON-PARAMETER RIVER REACHES FROM LAST STRESS PERIOD

     40 RIVER REACHES

 OPENING FILE ON UNIT   99:
 ref\rech_2.ref                                                                                                                                                                                          



                           RECHARGE
 READING ON UNIT   99 WITH FORMAT: (20G15.6)           
 
 SOLVING FOR HEAD 

    ------------------------------------------------
       NWT REQUIRED            5 OUTER ITERATIONS 
       AND A TOTAL OF         38 INNER ITERATIONS.
    ------------------------------------------------

 OUTPUT CONTROL FOR STRESS PERIOD    3   TIME STEP    1
    SAVE HEAD FOR ALL LAYERS
    SAVE BUDGET
 UBDSV2 SAVING "   CONSTANT HEAD" ON UNIT  53 AT TIME STEP  1, STRESS PERIOD   3
 UBDSV1 SAVING "FLOW RIGHT FACE " ON UNIT  53 AT TIME STEP  1, STRESS PERIOD   3
 UBDSV1 SAVING "FLOW FRONT FACE " ON UNIT  53 AT TIME STEP  1, STRESS PERIOD   3

 HEAD WILL BE SAVED ON UNIT   51 AT END OF TIME STEP    1, STRESS PERIOD    3
1
  VOLUMETRIC BUDGET FOR ENTIRE MODEL AT END OF TIME STEP    1, STRESS PERIOD   3
  ------------------------------------------------------------------------------

     CUMULATIVE VOLUMES      L**3       RATES FOR THIS TIME STEP      L**3/T
     ------------------                 ------------------------

           IN:                                      IN:
           ---                                      ---
             STORAGE =      583989.1250               STORAGE =           0.0000
       CONSTANT HEAD =           0.0000         CONSTANT HEAD =           0.0000
               WELLS =     4350341.5000                 WELLS =        2381.3999
       RIVER LEAKAGE =       44053.0977         RIVER LEAKAGE =          31.2779
            RECHARGE =     5488387.5000              RECHARGE =        3002.3999

            TOTAL IN =    10466771.0000              TOTAL IN =        5415.0776

          OUT:                                     OUT:
          ----                                     ----
             STORAGE =         257.9894               STORAGE =           0.0000
       CONSTANT HEAD =      532546.2500         CONSTANT HEAD =         254.2251
               WELLS =           0.0000                 WELLS =           0.0000
       RIVER LEAKAGE =     9933930.0000         RIVER LEAKAGE =        5160.8452
            RECHARGE =           0.0000              RECHARGE =           0.0000

           TOTAL OUT =    10466734.0000             TOTAL OUT =        5415.0703

            IN - OUT =          37.0000              IN - OUT =       7.3242E-03

 PERCENT DISCREPANCY =           0.00     PERCENT DISCREPANCY =           0.00






         TIME SUMMARY AT END OF TIME STEP    1 IN STRESS PERIOD    3
                    SECONDS     MINUTES      HOURS       DAYS        YEARS
                    -----------------------------------------------------------
   TIME STEP LENGTH  86400.      1440.0      24.000     1.00000     2.73785E-03
 STRESS PERIOD TIME  86400.      1440.0      24.000     1.00000     2.73785E-03
         TOTAL TIME 1.57853E+08 2.63088E+06  43848.      1827.0      5.0021    
1

 Run end date and time (yyyy/mm/dd hh:mm:ss): 2017/02/01 14:04:30
 Elapsed run time:  0.039 Seconds

